                                  MODFLOW-2000
      U.S. GEOLOGICAL SURVEY MODULAR FINITE-DIFFERENCE GROUND-WATER FLOW MODEL
                    VERSION 1.19.01 03/25/2010 CHPRC Build 7


 This model run produced both GLOBAL and LIST files.  This is the LIST file.

 
 # BAS6 package for  MODFLOW-2000, generated by Flopy.                           
 THE FREE FORMAT OPTION HAS BEEN SELECTED
    1 LAYERS        50 ROWS        50 COLUMNS
   10 STRESS PERIOD(S) IN SIMULATION

 BAS6 -- BASIC PACKAGE, VERSION 6, 1/11/2000 INPUT READ FROM UNIT   13
          5 ELEMENTS IN IR ARRAY ARE USED BY BAS

 WEL6 -- WELL PACKAGE, VERSION 6, 1/11/2000 INPUT READ FROM UNIT   20
 # WEL package for  MODFLOW-2000, generated by Flopy.
 No named parameters
 MAXIMUM OF      4 ACTIVE WELLS AT ONE TIME
 CELL-BY-CELL FLOWS WILL BE SAVED ON UNIT   53
         16 ELEMENTS IN RX ARRAY ARE USED BY WEL

         16  ELEMENTS OF RX ARRAY USED OUT OF         16
          0  ELEMENTS OF RZ ARRAY USED OUT OF          1
          5  ELEMENTS OF IR ARRAY USED OUT OF          5
1
 # BAS6 package for  MODFLOW-2000, generated by Flopy.                           
                                                                                 



                     BOUNDARY ARRAY FOR LAYER   1
 READING ON UNIT   13 WITH FORMAT: (50I10)             

 AQUIFER HEAD WILL BE SET TO -999.99     AT ALL NO-FLOW NODES (IBOUND=0).



                       INITIAL HEAD FOR LAYER   1
 READING ON UNIT   13 WITH FORMAT: (50E15.6)           
 # OC package for  MODFLOW-2000, generated by Flopy.

 OUTPUT CONTROL IS SPECIFIED ONLY AT TIME STEPS FOR WHICH OUTPUT IS DESIRED
 COMPACT CELL-BY-CELL BUDGET FILES WILL BE WRITTEN
 AUXILIARY DATA WILL BE SAVED IN CELL-BY-CELL BUDGET FILES
 HEAD PRINT FORMAT CODE IS   0    DRAWDOWN PRINT FORMAT CODE IS   0
 HEADS WILL BE SAVED ON UNIT   51    DRAWDOWNS WILL BE SAVED ON UNIT    0
1
                            STRESS PERIOD NO.    1, LENGTH =   365.2000    
                            -----------------------------------------------

                              NUMBER OF TIME STEPS =     1

                               MULTIPLIER FOR DELT =     1.000

                            INITIAL TIME STEP SIZE =   365.2000    

 WELL NO.  LAYER   ROW   COL   STRESS RATE         
 --------------------------------------------------
      1      1     10     15     -0.3850E+05
      2      1     18     40     -0.7700E+05
      3      1     29     24     -0.9625E+05
      4      1     42     18     -0.5775E+05

      4 WELLS
 
 SOLVING FOR HEAD 

 OUTPUT CONTROL FOR STRESS PERIOD    1   TIME STEP   1
    PRINT HEAD FOR ALL LAYERS
    PRINT BUDGET
    SAVE HEAD FOR ALL LAYERS
    SAVE BUDGET
 UBDSV2 SAVING "   CONSTANT HEAD" ON UNIT  53 AT TIME STEP  1, STRESS PERIOD   1
 UBDSV1 SAVING "FLOW RIGHT FACE " ON UNIT  53 AT TIME STEP  1, STRESS PERIOD   1
 UBDSV1 SAVING "FLOW FRONT FACE " ON UNIT  53 AT TIME STEP  1, STRESS PERIOD   1
 UBDSV4 SAVING "           WELLS" ON UNIT  53 AT TIME STEP  1, STRESS PERIOD   1
1
              HEAD IN LAYER   1 AT END OF TIME STEP   1 IN STRESS PERIOD    1
  ---------------------------------------------------------------------------

            1           2           3           4           5           6           7           8           9          10
           11          12          13          14          15          16          17          18          19          20
           21          22          23          24          25          26          27          28          29          30
           31          32          33          34          35          36          37          38          39          40
           41          42          43          44          45          46          47          48          49          50
 ........................................................................................................................
   1    60.00       60.00       60.00       60.00       60.00       60.00       60.00       60.00       60.00       60.00    
        60.00       60.00       60.00       60.00       60.00       60.00       60.00       60.00       60.00       60.00    
        60.00       60.00       60.00       60.00       60.00       60.00       60.00       60.00       60.00       60.00    
        60.00       60.00       60.00       60.00       60.00       60.00       60.00       60.00       60.00       60.00    
        60.00       60.00       60.00       60.00       60.00       60.00       60.00       60.00       60.00       60.00    
   2    60.82       60.70       60.58       60.45       60.31       60.16       60.00       59.82       59.63       59.43    
        59.22       59.11       59.09       59.10       59.15       59.23       59.34       59.48       59.62       59.76    
        59.90       60.02       60.12       60.21       60.28       60.34       60.39       60.42       60.45       60.47    
        60.49       60.50       60.51       60.52       60.52       60.53       60.53       60.54       60.55       60.56    
        60.58       60.60       60.62       60.64       60.67       60.69       60.72       60.75       60.78       60.82    
   3    61.63       61.40       61.16       60.91       60.64       60.34       60.01       59.66       59.27       58.86    
        58.44       58.20       58.16       58.17       58.26       58.43       58.67       58.95       59.24       59.53    
        59.80       60.05       60.26       60.43       60.58       60.69       60.79       60.86       60.91       60.95    
        60.98       61.01       61.02       61.03       61.04       61.05       61.06       61.08       61.10       61.12    
        61.15       61.19       61.23       61.28       61.33       61.39       61.45       61.51       61.57       61.63    
   4    62.45       62.11       61.76       61.39       60.99       60.55       60.06       59.52       58.93       58.29    
        57.63       57.24       57.16       57.17       57.30       57.57       57.95       58.40       58.87       59.32    
        59.74       60.11       60.43       60.69       60.90       61.07       61.20       61.31       61.38       61.44    
        61.48       61.51       61.53       61.54       61.55       61.57       61.59       61.61       61.64       61.68    
        61.72       61.78       61.84       61.91       61.99       62.08       62.17       62.26       62.35       62.45    
   5    63.27       62.83       62.37       61.89       61.37       60.80       60.16       59.44       58.64       57.75    
        56.81       56.23       56.09       56.05       56.20       56.58       57.16       57.82       58.51       59.15    
        59.73       60.23       60.65       60.99       61.27       61.49       61.66       61.78       61.87       61.94    
        61.98       62.02       62.04       62.05       62.06       62.08       62.10       62.13       62.17       62.22    
        62.28       62.36       62.44       62.54       62.65       62.76       62.88       63.01       63.14       63.27    
   6    64.08       63.56       63.01       62.44       61.82       61.12       60.34       59.45       58.43       57.28    
        56.00       55.18       54.90       54.74       54.86       55.42       56.27       57.23       58.18       59.05    
        59.80       60.43       60.95       61.37       61.70       61.95       62.15       62.29       62.39       62.46    
        62.50       62.53       62.55       62.55       62.57       62.59       62.61       62.64       62.69       62.75    
        62.83       62.93       63.04       63.16       63.30       63.44       63.59       63.75       63.92       64.08    
   7    64.90       64.30       63.69       63.04       62.33       61.53       60.63       59.58       58.36       56.93    
        55.26       54.13       53.61       53.14       53.10       53.95       55.26       56.66       57.95       59.06    
        59.99       60.74       61.35       61.82       62.20       62.48       62.69       62.84       62.94       63.00    
        63.03       63.05       63.05       63.05       63.06       63.08       63.10       63.14       63.19       63.27    
        63.36       63.48       63.61       63.77       63.93       64.11       64.30       64.50       64.70       64.90    
   8    65.71       65.07       64.40       63.69       62.92       62.05       61.06       59.89       58.50       56.81    
        54.74       53.23       52.27       51.09       50.45       52.02       54.18       56.20       57.89       59.26    
        60.34       61.20       61.87       62.39       62.79       63.08       63.30       63.44       63.53       63.57    
        63.58       63.57       63.55       63.55       63.55       63.56       63.58       63.62       63.68       63.76    
        63.88       64.01       64.18       64.36       64.56       64.77       65.00       65.23       65.47       65.71    
   9    66.53       65.85       65.16       64.42       63.61       62.70       61.66       60.43       58.93       57.07    
        54.68       52.77       51.16       48.50       45.60       49.50       53.23       56.06       58.16       59.73    
        60.93       61.85       62.55       63.08       63.48       63.77       63.97       64.10       64.16       64.18    
        64.15       64.09       64.05       64.04       64.03       64.02       64.04       64.07       64.14       64.23    
        64.36       64.52       64.72       64.93       65.17       65.42       65.69       65.97       66.25       66.53    
  10    67.35       66.66       65.95       65.21       64.39       63.49       62.45       61.22       59.74       57.86    
        55.38       53.30       51.09       46.16       33.94       47.16       53.18       56.65       58.95       60.59    
        61.80       62.71       63.39       63.90       64.28       64.54       64.72       64.82       64.85       64.82    
        64.75       64.64       64.56       64.52       64.49       64.47       64.47       64.50       64.57       64.67    
        64.82       65.01       65.23       65.48       65.76       66.06       66.37       66.69       67.02       67.35    
  11    68.16       67.49       66.79       66.06       65.27       64.40       63.42       62.28       60.93       59.25    
        57.09       55.34       53.76       51.10       48.18       52.03       55.68       58.41       60.40       61.87    
        62.97       63.79       64.40       64.86       65.19       65.41       65.55       65.60       65.59       65.52    
        65.38       65.20       65.07       65.01       64.95       64.90       64.87       64.89       64.95       65.06    
        65.23       65.45       65.71       66.01       66.34       66.68       67.04       67.41       67.79       68.16    
  12    68.98       68.33       67.67       66.97       66.23       65.43       64.55       63.56       62.44       61.13    
        59.55       58.37       57.49       56.32       55.64       57.09       59.09       60.91       62.38       63.53    
        64.41       65.08       65.58       65.94       66.20       66.36       66.45       66.46       66.40       66.27    
        66.07       65.79       65.59       65.50       65.39       65.30       65.24       65.24       65.29       65.40    
        65.59       65.85       66.16       66.51       66.89       67.29       67.71       68.13       68.55       68.98    
  13    69.80       69.19       68.57       67.93       67.26       66.54       65.78       64.98       64.14       63.27    
        62.41       61.89       61.50       61.06       60.95       61.63       62.67       63.75       64.69       65.46    
        66.07       66.54       66.89       67.14       67.30       67.40       67.42       67.39       67.28       67.10    
        66.83       66.45       66.14       65.99       65.83       65.68       65.57       65.53       65.56       65.67    
        65.89       66.20       66.57       66.99       67.43       67.89       68.36       68.84       69.32       69.80    
  14    70.61       70.06       69.49       68.92       68.32       67.70       67.07       66.44       65.86       65.41    
        65.28       65.63       65.56       65.46       65.49       65.78       66.23       66.72       67.17       67.56    
        67.87       68.11       68.29       68.41       68.48       68.50       68.46       68.38       68.23       68.02    
        67.71       67.24       66.74       66.51       66.27       66.03       65.85       65.76       65.74       65.84    
        66.10       66.48       66.94       67.43       67.95       68.48       69.01       69.54       70.08       70.61    
  15    71.43       70.93       70.43       69.92       69.40       68.87       68.34       67.85       67.44       67.23    
        67.43       67.99       68.01       68.02       68.07       68.18       68.34       68.52       68.70       68.86    
        69.00       69.10       69.17       69.21       69.21       69.19       69.12       69.01       68.85       68.63    
        68.33       67.93       67.40       67.03       66.69       66.36       66.10       65.91       65.79       65.84    
        66.18       66.68       67.26       67.86       68.46       69.06       69.66       70.25       70.84       71.43    
  16    72.24       71.82       71.39       70.94       70.49       70.03       69.59       69.17       68.83       68.64    
        68.67       68.81       68.82       68.83       68.87       68.93       69.02       69.12       69.23       69.32    
        69.40       69.46       69.49       69.51       69.49       69.45       69.38       69.27       69.12       68.91    
        68.63       68.29       67.89       67.51       67.12       66.70       66.32       65.99       65.68       65.57    
        66.09       66.81       67.56       68.29       68.98       69.65       70.31       70.95       71.60       72.24    
  17    73.06       72.71       72.35       71.97       71.59       71.19       70.79       70.42       70.08       69.83    
        69.68       69.64       69.63       69.63       69.63       69.65       69.69       69.72       69.76       69.80    
        69.83       69.84       69.84       69.83       69.80       69.75       69.68       69.58       69.44       69.25    
        69.01       68.72       68.37       68.00       67.58       67.08       66.59       66.06       65.36       64.68    
        65.78       66.92       67.89       68.74       69.52       70.25       70.96       71.66       72.36       73.06    
  18    73.88       73.60       73.32       73.02       72.69       72.35       71.98       71.61       71.25       70.92    
        70.61       70.46       70.44       70.42       70.39       70.36       70.34       70.33       70.31       70.29    
        70.26       70.24       70.21       70.17       70.13       70.08       70.01       69.92       69.80       69.64    
        69.44       69.19       68.89       68.53       68.10       67.57       67.00       66.30       65.02       62.01    
        65.45       67.18       68.34       69.28       70.10       70.88       71.63       72.37       73.12       73.88    
  19    74.69       74.51       74.31       74.09       73.82       73.52       73.18       72.80       72.40       71.97    
        71.53       71.29       71.26       71.20       71.14       71.07       71.00       70.93       70.85       70.78    
        70.70       70.64       70.57       70.52       70.47       70.42       70.36       70.29       70.20       70.08    
        69.92       69.72       69.46       69.14       68.74       68.22       67.69       67.12       66.40       65.71    
        66.83       68.00       69.02       69.92       70.74       71.53       72.30       73.07       73.87       74.69    
  20    75.51       75.43       75.33       75.19       74.99       74.73       74.41       74.02       73.57       73.05    
        72.47       72.14       72.09       72.00       71.90       71.78       71.66       71.53       71.40       71.26    
        71.14       71.03       70.93       70.86       70.80       70.76       70.73       70.69       70.64       70.56    
        70.45       70.29       70.09       69.82       69.48       69.03       68.52       68.11       67.74       67.61    
        68.17       68.97       69.82       70.63       71.42       72.19       72.97       73.75       74.59       75.51    
  21    76.33       76.38       76.40       76.35       76.22       76.01       75.71       75.31       74.80       74.18    
        73.45       73.02       72.94       72.82       72.67       72.50       72.32       72.13       71.94       71.75    
        71.57       71.41       71.27       71.18       71.12       71.10       71.10       71.10       71.10       71.07    
        71.02       70.92       70.78       70.59       70.33       70.01       69.62       69.33       69.16       69.20    
        69.59       70.19       70.88       71.60       72.33       73.06       73.81       74.58       75.41       76.33    
  22    77.14       77.37       77.52       77.58       77.53       77.37       77.10       76.70       76.15       75.43    
        74.52       73.96       73.84       73.67       73.46       73.24       72.99       72.74       72.48       72.22    
        71.97       71.75       71.58       71.46       71.41       71.42       71.46       71.52       71.58       71.61    
        71.62       71.60       71.53       71.41       71.26       71.07       70.87       70.73       70.69       70.81    
        71.13       71.60       72.17       72.79       73.44       74.11       74.82       75.55       76.33       77.14    
  23    77.96       78.43       78.75       78.92       78.95       78.85       78.62       78.23       77.67       76.88    
        75.76       74.97       74.78       74.54       74.27       73.99       73.68       73.35       73.02       72.67    
        72.35       72.05       71.82       71.69       71.65       71.70       71.81       71.94       72.07       72.19    
        72.27       72.31       72.31       72.28       72.21       72.13       72.05       72.02       72.07       72.23    
        72.51       72.91       73.39       73.94       74.52       75.14       75.79       76.48       77.20       77.96    
  24    78.78       79.63       80.13       80.40       80.51       80.47       80.28       79.95       79.43       78.65    
        77.40       76.10       75.79       75.45       75.11       74.75       74.38       73.98       73.56       73.12    
        72.69       72.29       71.98       71.81       71.80       71.92       72.13       72.36       72.59       72.79    
        72.95       73.07       73.14       73.18       73.19       73.19       73.19       73.23       73.33       73.51    
        73.78       74.14       74.56       75.05       75.57       76.14       76.73       77.37       78.05       78.78    
  25    79.59       80.46       80.97       81.26       81.40       81.39       81.24       80.94       80.48       79.83    
        78.92       77.61       76.94       76.47       76.06       75.64       75.20       74.71       74.18       73.61    
        73.02       72.46       72.00       71.76       71.81       72.08       72.45       72.84       73.20       73.51    
        73.77       73.97       74.11       74.22       74.30       74.37       74.43       74.53       74.66       74.86    
        75.11       75.44       75.82       76.24       76.71       77.22       77.75       78.32       78.93       79.59    
  26    80.41       80.89       81.26       81.51       81.63       81.62       81.48       81.20       80.77       80.20    
        79.47       78.65       78.02       77.56       77.12       76.66       76.15       75.57       74.92       74.19    
        73.38       72.54       71.80       71.40       71.61       72.16       72.80       73.40       73.93       74.37    
        74.73       75.01       75.23       75.41       75.55       75.67       75.79       75.93       76.09       76.29    
        76.53       76.82       77.16       77.54       77.94       78.38       78.85       79.35       79.87       80.41    
  27    81.22       81.43       81.68       81.88       81.99       81.98       81.85       81.60       81.22       80.71    
        80.11       79.48       78.95       78.61       78.20       77.72       77.16       76.51       75.74       74.83    
        73.76       72.53       71.27       70.44       71.07       72.14       73.17       74.05       74.75       75.32    
        75.77       76.12       76.40       76.63       76.82       76.98       77.14       77.30       77.47       77.67    
        77.90       78.17       78.46       78.79       79.15       79.52       79.92       80.34       80.78       81.22    
  28    82.04       82.18       82.39       82.58       82.69       82.70       82.61       82.40       82.07       81.64    
        81.13       80.58       80.06       79.73       79.35       78.87       78.27       77.56       76.70       75.64    
        74.29       72.54       70.30       68.03       70.10       72.15       73.70       74.85       75.72       76.38    
        76.90       77.30       77.63       77.89       78.11       78.30       78.48       78.65       78.83       79.03    
        79.24       79.48       79.74       80.02       80.32       80.64       80.98       81.32       81.68       82.04    
  29    82.86       83.11       83.37       83.58       83.72       83.77       83.73       83.57       83.31       82.95    
        82.51       82.01       81.46       81.02       80.62       80.11       79.50       78.77       77.87       76.73    
        75.23       73.05       69.36       61.26       69.17       72.66       74.64       75.95       76.88       77.59    
        78.14       78.57       78.91       79.19       79.43       79.63       79.82       80.00       80.18       80.36    
        80.56       80.77       80.99       81.23       81.48       81.74       82.02       82.29       82.57       82.86    
  30    83.67       84.04       84.38       84.65       84.85       84.95       84.95       84.85       84.65       84.35    
        83.96       83.48       82.90       82.40       81.98       81.47       80.86       80.13       79.26       78.19    
        76.84       75.08       72.83       70.56       72.64       74.69       76.25       77.41       78.28       78.96    
        79.49       79.91       80.26       80.54       80.78       80.98       81.17       81.34       81.51       81.68    
        81.86       82.04       82.23       82.43       82.63       82.84       83.05       83.26       83.47       83.67    
  31    84.49       85.01       85.45       85.81       86.07       86.22       86.28       86.23       86.09       85.85    
        85.50       85.04       84.44       83.88       83.43       82.92       82.33       81.65       80.86       79.93    
        78.84       77.60       76.33       75.51       76.14       77.21       78.26       79.15       79.88       80.47    
        80.95       81.34       81.67       81.93       82.16       82.36       82.53       82.70       82.85       83.00    
        83.15       83.31       83.46       83.62       83.78       83.93       84.08       84.23       84.36       84.49    
  32    85.31       86.05       86.62       87.06       87.38       87.59       87.70       87.71       87.63       87.44    
        87.15       86.74       86.14       85.43       84.95       84.44       83.89       83.28       82.60       81.83    
        81.00       80.15       79.40       78.99       79.20       79.76       80.42       81.06       81.62       82.10    
        82.50       82.84       83.13       83.37       83.57       83.75       83.91       84.05       84.19       84.32    
        84.44       84.57       84.69       84.81       84.92       85.03       85.12       85.20       85.26       85.31    
  33    86.12       86.95       87.60       88.09       88.45       88.70       88.85       88.90       88.85       88.72    
        88.49       88.14       87.66       87.00       86.49       86.01       85.51       84.98       84.41       83.81    
        83.18       82.59       82.11       81.86       81.92       82.21       82.61       83.03       83.44       83.80    
        84.12       84.40       84.63       84.84       85.01       85.17       85.30       85.42       85.53       85.64    
        85.74       85.83       85.92       86.01       86.08       86.14       86.18       86.20       86.17       86.12    
  34    86.94       87.74       88.40       88.91       89.28       89.54       89.71       89.78       89.76       89.67    
        89.49       89.22       88.86       88.42       88.00       87.59       87.16       86.72       86.26       85.79    
        85.34       84.92       84.60       84.42       84.41       84.54       84.77       85.03       85.30       85.55    
        85.78       85.99       86.17       86.33       86.47       86.60       86.70       86.80       86.89       86.97    
        87.04       87.10       87.16       87.21       87.25       87.27       87.27       87.22       87.12       86.94    
  35    87.76       88.68       89.35       89.85       90.22       90.48       90.65       90.74       90.76       90.70    
        90.58       90.38       90.13       89.83       89.51       89.18       88.84       88.48       88.12       87.76    
        87.45       87.17       86.94       86.80       86.76       86.79       86.89       87.02       87.17       87.32    
        87.47       87.61       87.73       87.85       87.95       88.04       88.12       88.19       88.25       88.30    
        88.34       88.38       88.41       88.43       88.43       88.43       88.39       88.31       88.14       87.76    
  36    88.57       89.44       90.07       90.53       90.88       91.14       91.31       91.40       91.43       91.40    
        91.31       91.16       90.97       90.73       90.47       90.19       89.90       89.60       89.30       88.98    
        88.70       88.48       88.30       88.18       88.11       88.11       88.14       88.20       88.29       88.38    
        88.48       88.58       88.68       88.77       88.85       88.92       88.98       89.03       89.07       89.10    
        89.13       89.15       89.16       89.16       89.16       89.13       89.10       89.02       88.88       88.57    
  37    89.39       90.01       90.52       90.94       91.26       91.49       91.66       91.75       91.78       91.75    
        91.67       91.54       91.36       91.14       90.89       90.63       90.36       90.08       89.80       89.49    
        89.11       88.87       88.69       88.58       88.52       88.50       88.53       88.58       88.65       88.73    
        88.82       88.91       89.00       89.08       89.15       89.22       89.27       89.32       89.35       89.38    
        89.40       89.41       89.42       89.42       89.41       89.39       89.36       89.33       89.31       89.39    
  38    90.20       90.67       91.09       91.43       91.71       91.93       92.07       92.16       92.19       92.16    
        92.08       91.96       91.79       91.58       91.34       91.08       90.81       90.56       90.34       90.14    
        89.80       89.56       89.41       89.32       89.28       89.28       89.30       89.35       89.41       89.48    
        89.56       89.64       89.71       89.78       89.84       89.89       89.93       89.96       89.98       89.99    
        90.00       90.00       90.00       89.99       89.98       89.97       89.95       89.95       90.00       90.20    
  39    91.02       91.38       91.71       92.00       92.24       92.42       92.55       92.62       92.65       92.62    
        92.54       92.42       92.25       92.04       91.80       91.53       91.25       91.02       90.87       90.77    
        90.64       90.53       90.46       90.43       90.42       90.44       90.47       90.51       90.57       90.63    
        90.69       90.75       90.81       90.86       90.90       90.94       90.96       90.96       90.96       90.94    
        90.93       90.91       90.89       90.87       90.86       90.85       90.85       90.86       90.92       91.02    
  40    91.84       92.12       92.39       92.62       92.82       92.97       93.08       93.14       93.16       93.13    
        93.05       92.93       92.76       92.55       92.29       91.98       91.66       91.39       91.34       91.37    
        91.40       91.45       91.48       91.51       91.54       91.58       91.62       91.67       91.72       91.77    
        91.82       91.87       91.92       91.95       91.98       91.99       92.00       91.98       91.95       91.90    
        91.85       91.81       91.78       91.75       91.73       91.72       91.73       91.74       91.78       91.84    
  41    92.65       92.88       93.09       93.28       93.44       93.57       93.66       93.71       93.71       93.68    
        93.61       93.49       93.32       93.10       92.82       92.45       92.00       91.53       91.76       91.97    
        92.18       92.37       92.50       92.59       92.66       92.72       92.77       92.82       92.87       92.92    
        92.96       93.00       93.03       93.05       93.07       93.07       93.05       93.01       92.95       92.85    
        92.77       92.71       92.66       92.63       92.60       92.59       92.59       92.60       92.62       92.65    
  42    93.47       93.65       93.82       93.97       94.10       94.20       94.27       94.31       94.31       94.28    
        94.21       94.09       93.93       93.72       93.43       93.02       92.36       90.99       92.18       92.66    
        93.06       93.37       93.56       93.69       93.79       93.86       93.92       93.98       94.02       94.06    
        94.10       94.13       94.15       94.16       94.17       94.16       94.13       94.07       93.97       93.79    
        93.67       93.59       93.53       93.49       93.46       93.44       93.44       93.44       93.45       93.47    
  43    94.29       94.43       94.56       94.68       94.79       94.87       94.92       94.95       94.95       94.91    
        94.85       94.74       94.60       94.40       94.16       93.83       93.43       93.01       93.30       93.61    
        93.97       94.26       94.46       94.60       94.70       94.79       94.85       94.90       94.95       94.99    
        95.02       95.04       95.06       95.06       95.06       95.04       95.01       94.95       94.86       94.68    
        94.54       94.45       94.38       94.34       94.31       94.29       94.28       94.27       94.28       94.29    
  44    95.10       95.21       95.32       95.41       95.49       95.56       95.60       95.62       95.61       95.58    
        95.52       95.43       95.31       95.15       94.96       94.73       94.50       94.34       94.42       94.58    
        94.80       95.01       95.19       95.32       95.42       95.50       95.56       95.61       95.65       95.68    
        95.71       95.73       95.74       95.75       95.74       95.72       95.69       95.64       95.58       95.47    
        95.36       95.28       95.22       95.17       95.14       95.12       95.11       95.10       95.10       95.10    
  45    95.92       96.00       96.08       96.16       96.22       96.27       96.30       96.31       96.31       96.28    
        96.23       96.15       96.06       95.93       95.79       95.64       95.51       95.42       95.45       95.53    
        95.67       95.82       95.95       96.06       96.15       96.22       96.28       96.32       96.36       96.39    
        96.41       96.43       96.44       96.44       96.43       96.42       96.39       96.35       96.31       96.23    
        96.15       96.09       96.04       96.00       95.97       95.95       95.93       95.93       95.92       95.92    
  46    96.73       96.80       96.86       96.91       96.96       97.00       97.02       97.03       97.02       97.00    
        96.96       96.90       96.82       96.74       96.64       96.54       96.45       96.41       96.41       96.46    
        96.54       96.65       96.75       96.83       96.90       96.96       97.01       97.05       97.08       97.10    
        97.12       97.13       97.14       97.14       97.14       97.12       97.10       97.07       97.04       96.99    
        96.93       96.88       96.84       96.81       96.78       96.77       96.75       96.74       96.74       96.73    
  47    97.55       97.60       97.64       97.68       97.71       97.74       97.75       97.76       97.75       97.73    
        97.70       97.66       97.61       97.55       97.48       97.42       97.37       97.34       97.34       97.36    
        97.42       97.49       97.55       97.61       97.67       97.71       97.75       97.78       97.80       97.82    
        97.84       97.85       97.85       97.85       97.85       97.84       97.82       97.80       97.78       97.75    
        97.70       97.67       97.64       97.61       97.59       97.58       97.57       97.56       97.56       97.55    
  48    98.37       98.40       98.42       98.45       98.47       98.49       98.50       98.50       98.50       98.48    
        98.46       98.44       98.40       98.36       98.32       98.28       98.25       98.24       98.24       98.25    
        98.28       98.32       98.37       98.41       98.44       98.47       98.50       98.52       98.53       98.55    
        98.55       98.56       98.56       98.56       98.56       98.56       98.55       98.53       98.52       98.50    
        98.47       98.45       98.43       98.41       98.40       98.39       98.38       98.37       98.37       98.37    
  49    99.18       99.20       99.21       99.22       99.23       99.24       99.25       99.25       99.25       99.24    
        99.23       99.22       99.20       99.18       99.16       99.14       99.13       99.12       99.12       99.13    
        99.14       99.16       99.18       99.20       99.22       99.23       99.25       99.26       99.27       99.27    
        99.28       99.28       99.28       99.28       99.28       99.28       99.27       99.27       99.26       99.25    
        99.24       99.22       99.21       99.21       99.20       99.19       99.19       99.19       99.19       99.18    
  50    100.0       100.0       100.0       100.0       100.0       100.0       100.0       100.0       100.0       100.0    
        100.0       100.0       100.0       100.0       100.0       100.0       100.0       100.0       100.0       100.0    
        100.0       100.0       100.0       100.0       100.0       100.0       100.0       100.0       100.0       100.0    
        100.0       100.0       100.0       100.0       100.0       100.0       100.0       100.0       100.0       100.0    
        100.0       100.0       100.0       100.0       100.0       100.0       100.0       100.0       100.0       100.0    

 HEAD WILL BE SAVED ON UNIT   51 AT END OF TIME STEP   1, STRESS PERIOD    1
1
  VOLUMETRIC BUDGET FOR ENTIRE MODEL AT END OF TIME STEP  1 IN STRESS PERIOD   1
  ------------------------------------------------------------------------------

     CUMULATIVE VOLUMES      L**3       RATES FOR THIS TIME STEP      L**3/T
     ------------------                 ------------------------

           IN:                                      IN:
           ---                                      ---
             STORAGE =           0.0000               STORAGE =           0.0000
       CONSTANT HEAD =   142918480.0000         CONSTANT HEAD =      391343.0310
               WELLS =           0.0000                 WELLS =           0.0000

            TOTAL IN =   142918480.0000              TOTAL IN =      391343.0310

          OUT:                                     OUT:
          ----                                     ----
             STORAGE =           0.0000               STORAGE =           0.0000
       CONSTANT HEAD =    44497072.0000         CONSTANT HEAD =      121843.0160
               WELLS =    98421400.0000                 WELLS =      269500.0000

           TOTAL OUT =   142918464.0000             TOTAL OUT =      391343.0000

            IN - OUT =           8.0000              IN - OUT =       1.5625E-02

 PERCENT DISCREPANCY =           0.00     PERCENT DISCREPANCY =           0.00






          TIME SUMMARY AT END OF TIME STEP   1 IN STRESS PERIOD    1
                    SECONDS     MINUTES      HOURS       DAYS        YEARS
                    -----------------------------------------------------------
   TIME STEP LENGTH 3.15533E+07 5.25888E+05  8764.8      365.20     0.99986    
 STRESS PERIOD TIME 3.15533E+07 5.25888E+05  8764.8      365.20     0.99986    
         TOTAL TIME 3.15533E+07 5.25888E+05  8764.8      365.20     0.99986    
1
1
                            STRESS PERIOD NO.    2, LENGTH =   365.2000    
                            -----------------------------------------------

                              NUMBER OF TIME STEPS =     1

                               MULTIPLIER FOR DELT =     1.000

                            INITIAL TIME STEP SIZE =   365.2000    

 WELL NO.  LAYER   ROW   COL   STRESS RATE         
 --------------------------------------------------
      1      1     10     15     -0.3850E+05
      2      1     18     40     -0.7700E+05
      3      1     29     24     -0.9625E+05
      4      1     42     18     -0.5775E+05

      4 WELLS
 
 SOLVING FOR HEAD 

 OUTPUT CONTROL FOR STRESS PERIOD    2   TIME STEP   1
    PRINT HEAD FOR ALL LAYERS
    PRINT BUDGET
    SAVE HEAD FOR ALL LAYERS
    SAVE BUDGET
 UBDSV2 SAVING "   CONSTANT HEAD" ON UNIT  53 AT TIME STEP  1, STRESS PERIOD   2
 UBDSV1 SAVING "FLOW RIGHT FACE " ON UNIT  53 AT TIME STEP  1, STRESS PERIOD   2
 UBDSV1 SAVING "FLOW FRONT FACE " ON UNIT  53 AT TIME STEP  1, STRESS PERIOD   2
 UBDSV4 SAVING "           WELLS" ON UNIT  53 AT TIME STEP  1, STRESS PERIOD   2
1
              HEAD IN LAYER   1 AT END OF TIME STEP   1 IN STRESS PERIOD    2
  ---------------------------------------------------------------------------

            1           2           3           4           5           6           7           8           9          10
           11          12          13          14          15          16          17          18          19          20
           21          22          23          24          25          26          27          28          29          30
           31          32          33          34          35          36          37          38          39          40
           41          42          43          44          45          46          47          48          49          50
 ........................................................................................................................
   1    60.00       60.00       60.00       60.00       60.00       60.00       60.00       60.00       60.00       60.00    
        60.00       60.00       60.00       60.00       60.00       60.00       60.00       60.00       60.00       60.00    
        60.00       60.00       60.00       60.00       60.00       60.00       60.00       60.00       60.00       60.00    
        60.00       60.00       60.00       60.00       60.00       60.00       60.00       60.00       60.00       60.00    
        60.00       60.00       60.00       60.00       60.00       60.00       60.00       60.00       60.00       60.00    
   2    60.82       60.70       60.58       60.45       60.31       60.16       60.00       59.82       59.63       59.43    
        59.22       59.11       59.09       59.10       59.15       59.23       59.34       59.48       59.62       59.76    
        59.90       60.02       60.12       60.21       60.28       60.34       60.39       60.42       60.45       60.47    
        60.49       60.50       60.51       60.52       60.52       60.53       60.53       60.54       60.55       60.56    
        60.58       60.60       60.62       60.64       60.67       60.69       60.72       60.75       60.78       60.82    
   3    61.63       61.40       61.16       60.91       60.64       60.34       60.01       59.66       59.27       58.86    
        58.44       58.20       58.16       58.17       58.26       58.43       58.67       58.95       59.24       59.53    
        59.80       60.05       60.26       60.43       60.58       60.69       60.79       60.86       60.91       60.95    
        60.98       61.01       61.02       61.03       61.04       61.05       61.06       61.08       61.10       61.12    
        61.15       61.19       61.23       61.28       61.33       61.39       61.45       61.51       61.57       61.63    
   4    62.45       62.11       61.76       61.39       60.99       60.55       60.06       59.52       58.93       58.29    
        57.63       57.24       57.16       57.17       57.30       57.57       57.95       58.40       58.87       59.32    
        59.74       60.11       60.43       60.69       60.90       61.07       61.20       61.31       61.38       61.44    
        61.48       61.51       61.53       61.54       61.55       61.57       61.59       61.61       61.64       61.68    
        61.72       61.78       61.84       61.91       61.99       62.08       62.17       62.26       62.35       62.45    
   5    63.27       62.83       62.37       61.89       61.37       60.80       60.16       59.44       58.64       57.75    
        56.81       56.23       56.09       56.05       56.20       56.58       57.16       57.82       58.51       59.15    
        59.73       60.23       60.65       60.99       61.27       61.49       61.66       61.78       61.87       61.94    
        61.98       62.02       62.04       62.05       62.06       62.08       62.10       62.13       62.17       62.22    
        62.28       62.36       62.44       62.54       62.65       62.76       62.88       63.01       63.14       63.27    
   6    64.08       63.56       63.01       62.44       61.82       61.12       60.34       59.45       58.43       57.28    
        56.00       55.18       54.90       54.74       54.86       55.42       56.27       57.23       58.18       59.05    
        59.80       60.43       60.95       61.37       61.70       61.95       62.15       62.29       62.39       62.46    
        62.50       62.53       62.55       62.55       62.57       62.59       62.61       62.64       62.69       62.75    
        62.83       62.93       63.04       63.16       63.30       63.44       63.59       63.75       63.92       64.08    
   7    64.90       64.30       63.69       63.04       62.33       61.53       60.63       59.58       58.36       56.93    
        55.26       54.13       53.61       53.14       53.10       53.95       55.26       56.66       57.95       59.06    
        59.99       60.74       61.35       61.82       62.20       62.48       62.69       62.84       62.94       63.00    
        63.03       63.05       63.05       63.05       63.06       63.08       63.10       63.14       63.19       63.27    
        63.36       63.48       63.61       63.77       63.93       64.11       64.30       64.50       64.70       64.90    
   8    65.71       65.07       64.40       63.69       62.92       62.05       61.06       59.89       58.50       56.81    
        54.74       53.23       52.27       51.09       50.45       52.02       54.18       56.20       57.89       59.26    
        60.34       61.20       61.87       62.39       62.79       63.08       63.30       63.44       63.53       63.57    
        63.58       63.57       63.55       63.55       63.55       63.56       63.58       63.62       63.68       63.76    
        63.88       64.01       64.18       64.36       64.56       64.77       65.00       65.23       65.47       65.71    
   9    66.53       65.85       65.16       64.42       63.61       62.70       61.66       60.43       58.93       57.07    
        54.68       52.77       51.16       48.50       45.60       49.50       53.23       56.06       58.16       59.73    
        60.93       61.85       62.55       63.08       63.48       63.77       63.97       64.10       64.16       64.18    
        64.15       64.09       64.05       64.04       64.03       64.02       64.04       64.07       64.14       64.23    
        64.36       64.52       64.72       64.93       65.17       65.42       65.69       65.97       66.25       66.53    
  10    67.35       66.66       65.95       65.21       64.39       63.49       62.45       61.22       59.74       57.86    
        55.38       53.30       51.09       46.16       33.94       47.16       53.18       56.65       58.95       60.59    
        61.80       62.71       63.39       63.90       64.28       64.54       64.72       64.82       64.85       64.82    
        64.75       64.64       64.56       64.52       64.49       64.47       64.47       64.50       64.57       64.67    
        64.82       65.01       65.23       65.48       65.76       66.06       66.37       66.69       67.02       67.35    
  11    68.16       67.49       66.79       66.06       65.27       64.40       63.42       62.28       60.93       59.25    
        57.09       55.34       53.76       51.10       48.18       52.03       55.68       58.41       60.40       61.87    
        62.97       63.79       64.40       64.86       65.19       65.41       65.55       65.60       65.59       65.52    
        65.38       65.20       65.07       65.01       64.95       64.90       64.87       64.89       64.95       65.06    
        65.23       65.45       65.71       66.01       66.34       66.68       67.04       67.41       67.79       68.16    
  12    68.98       68.33       67.67       66.97       66.23       65.43       64.55       63.56       62.44       61.13    
        59.55       58.37       57.49       56.32       55.64       57.09       59.09       60.91       62.38       63.53    
        64.41       65.08       65.58       65.94       66.20       66.36       66.45       66.46       66.40       66.27    
        66.07       65.79       65.59       65.50       65.39       65.30       65.24       65.24       65.29       65.40    
        65.59       65.85       66.16       66.51       66.89       67.29       67.71       68.13       68.55       68.98    
  13    69.80       69.19       68.57       67.93       67.26       66.54       65.78       64.98       64.14       63.27    
        62.41       61.89       61.50       61.06       60.95       61.63       62.67       63.75       64.69       65.46    
        66.07       66.54       66.89       67.14       67.30       67.40       67.42       67.39       67.28       67.10    
        66.83       66.45       66.14       65.99       65.83       65.68       65.57       65.53       65.56       65.67    
        65.89       66.20       66.57       66.99       67.43       67.89       68.36       68.84       69.32       69.80    
  14    70.61       70.06       69.49       68.92       68.32       67.70       67.07       66.44       65.86       65.41    
        65.28       65.63       65.56       65.46       65.49       65.78       66.23       66.72       67.17       67.56    
        67.87       68.11       68.29       68.41       68.48       68.50       68.46       68.38       68.23       68.02    
        67.71       67.24       66.74       66.51       66.27       66.03       65.85       65.76       65.74       65.84    
        66.10       66.48       66.94       67.43       67.95       68.48       69.01       69.54       70.08       70.61    
  15    71.43       70.93       70.43       69.92       69.40       68.87       68.34       67.85       67.44       67.23    
        67.43       67.99       68.01       68.02       68.07       68.18       68.34       68.52       68.70       68.86    
        69.00       69.10       69.17       69.21       69.21       69.19       69.12       69.01       68.85       68.63    
        68.33       67.93       67.40       67.03       66.69       66.36       66.10       65.91       65.79       65.84    
        66.18       66.68       67.26       67.86       68.46       69.06       69.66       70.25       70.84       71.43    
  16    72.24       71.82       71.39       70.94       70.49       70.03       69.59       69.17       68.83       68.64    
        68.67       68.81       68.82       68.83       68.87       68.93       69.02       69.12       69.23       69.32    
        69.40       69.46       69.49       69.51       69.49       69.45       69.38       69.27       69.12       68.91    
        68.63       68.29       67.89       67.51       67.12       66.70       66.32       65.99       65.68       65.57    
        66.09       66.81       67.56       68.29       68.98       69.65       70.31       70.95       71.60       72.24    
  17    73.06       72.71       72.35       71.97       71.59       71.19       70.79       70.42       70.08       69.83    
        69.68       69.64       69.63       69.63       69.63       69.65       69.69       69.72       69.76       69.80    
        69.83       69.84       69.84       69.83       69.80       69.75       69.68       69.58       69.44       69.25    
        69.01       68.72       68.37       68.00       67.58       67.08       66.59       66.06       65.36       64.68    
        65.78       66.92       67.89       68.74       69.52       70.25       70.96       71.66       72.36       73.06    
  18    73.88       73.60       73.32       73.02       72.69       72.35       71.98       71.61       71.25       70.92    
        70.61       70.46       70.44       70.42       70.39       70.36       70.34       70.33       70.31       70.29    
        70.26       70.24       70.21       70.17       70.13       70.08       70.01       69.92       69.80       69.64    
        69.44       69.19       68.89       68.53       68.10       67.57       67.00       66.30       65.02       62.01    
        65.45       67.18       68.34       69.28       70.10       70.88       71.63       72.37       73.12       73.88    
  19    74.69       74.51       74.31       74.09       73.82       73.52       73.18       72.80       72.40       71.97    
        71.53       71.29       71.26       71.20       71.14       71.07       71.00       70.93       70.85       70.78    
        70.70       70.64       70.57       70.52       70.47       70.42       70.36       70.29       70.20       70.08    
        69.92       69.72       69.46       69.14       68.74       68.22       67.69       67.12       66.40       65.71    
        66.83       68.00       69.02       69.92       70.74       71.53       72.30       73.07       73.87       74.69    
  20    75.51       75.43       75.33       75.19       74.99       74.73       74.41       74.02       73.57       73.05    
        72.47       72.14       72.09       72.00       71.90       71.78       71.66       71.53       71.40       71.26    
        71.14       71.03       70.93       70.86       70.80       70.76       70.73       70.69       70.64       70.56    
        70.45       70.29       70.09       69.82       69.48       69.03       68.52       68.11       67.74       67.61    
        68.17       68.97       69.82       70.63       71.42       72.19       72.97       73.75       74.59       75.51    
  21    76.33       76.38       76.40       76.35       76.22       76.01       75.71       75.31       74.80       74.18    
        73.45       73.02       72.94       72.82       72.67       72.50       72.32       72.13       71.94       71.75    
        71.57       71.41       71.27       71.18       71.12       71.10       71.10       71.10       71.10       71.07    
        71.02       70.92       70.78       70.59       70.33       70.01       69.62       69.33       69.16       69.20    
        69.59       70.19       70.88       71.60       72.33       73.06       73.81       74.58       75.41       76.33    
  22    77.14       77.37       77.52       77.58       77.53       77.37       77.10       76.70       76.15       75.43    
        74.52       73.96       73.84       73.67       73.46       73.24       72.99       72.74       72.48       72.22    
        71.97       71.75       71.58       71.46       71.41       71.42       71.46       71.52       71.58       71.61    
        71.62       71.60       71.53       71.41       71.26       71.07       70.87       70.73       70.69       70.81    
        71.13       71.60       72.17       72.79       73.44       74.11       74.82       75.55       76.33       77.14    
  23    77.96       78.43       78.75       78.92       78.95       78.85       78.62       78.23       77.67       76.88    
        75.76       74.97       74.78       74.54       74.27       73.99       73.68       73.35       73.02       72.67    
        72.35       72.05       71.82       71.69       71.65       71.70       71.81       71.94       72.07       72.19    
        72.27       72.31       72.31       72.28       72.21       72.13       72.05       72.02       72.07       72.23    
        72.51       72.91       73.39       73.94       74.52       75.14       75.79       76.48       77.20       77.96    
  24    78.78       79.63       80.13       80.40       80.51       80.47       80.28       79.95       79.43       78.65    
        77.40       76.10       75.79       75.45       75.11       74.75       74.38       73.98       73.56       73.12    
        72.69       72.29       71.98       71.81       71.80       71.92       72.13       72.36       72.59       72.79    
        72.95       73.07       73.14       73.18       73.19       73.19       73.19       73.23       73.33       73.51    
        73.78       74.14       74.56       75.05       75.57       76.14       76.73       77.37       78.05       78.78    
  25    79.59       80.46       80.97       81.26       81.40       81.39       81.24       80.94       80.48       79.83    
        78.92       77.61       76.94       76.47       76.06       75.64       75.20       74.71       74.18       73.61    
        73.02       72.46       72.00       71.76       71.81       72.08       72.45       72.84       73.20       73.51    
        73.77       73.97       74.11       74.22       74.30       74.37       74.43       74.53       74.66       74.86    
        75.11       75.44       75.82       76.24       76.71       77.22       77.75       78.32       78.93       79.59    
  26    80.41       80.89       81.26       81.51       81.63       81.62       81.48       81.20       80.77       80.20    
        79.47       78.65       78.02       77.56       77.12       76.66       76.15       75.57       74.92       74.19    
        73.38       72.54       71.80       71.40       71.61       72.16       72.80       73.40       73.93       74.37    
        74.73       75.01       75.23       75.41       75.55       75.67       75.79       75.93       76.09       76.29    
        76.53       76.82       77.16       77.54       77.94       78.38       78.85       79.35       79.87       80.41    
  27    81.22       81.43       81.68       81.88       81.99       81.98       81.85       81.60       81.22       80.71    
        80.11       79.48       78.95       78.61       78.20       77.72       77.16       76.51       75.74       74.83    
        73.76       72.53       71.27       70.44       71.07       72.14       73.17       74.05       74.75       75.32    
        75.77       76.12       76.40       76.63       76.82       76.98       77.14       77.30       77.47       77.67    
        77.90       78.17       78.46       78.79       79.15       79.52       79.92       80.34       80.78       81.22    
  28    82.04       82.18       82.39       82.58       82.69       82.70       82.61       82.40       82.07       81.64    
        81.13       80.58       80.06       79.73       79.35       78.87       78.27       77.56       76.70       75.64    
        74.29       72.54       70.30       68.03       70.10       72.15       73.70       74.85       75.72       76.38    
        76.90       77.30       77.63       77.89       78.11       78.30       78.48       78.65       78.83       79.03    
        79.24       79.48       79.74       80.02       80.32       80.64       80.98       81.32       81.68       82.04    
  29    82.86       83.11       83.37       83.58       83.72       83.77       83.73       83.57       83.31       82.95    
        82.51       82.01       81.46       81.02       80.62       80.11       79.50       78.77       77.87       76.73    
        75.23       73.05       69.36       61.26       69.17       72.66       74.64       75.95       76.88       77.59    
        78.14       78.57       78.91       79.19       79.43       79.63       79.82       80.00       80.18       80.36    
        80.56       80.77       80.99       81.23       81.48       81.74       82.02       82.29       82.57       82.86    
  30    83.67       84.04       84.38       84.65       84.85       84.95       84.95       84.85       84.65       84.35    
        83.96       83.48       82.90       82.40       81.98       81.47       80.86       80.13       79.26       78.19    
        76.84       75.08       72.83       70.56       72.64       74.69       76.25       77.41       78.28       78.96    
        79.49       79.91       80.26       80.54       80.78       80.98       81.17       81.34       81.51       81.68    
        81.86       82.04       82.23       82.43       82.63       82.84       83.05       83.26       83.47       83.67    
  31    84.49       85.01       85.45       85.81       86.07       86.22       86.28       86.23       86.09       85.85    
        85.50       85.04       84.44       83.88       83.43       82.92       82.33       81.65       80.86       79.93    
        78.84       77.60       76.33       75.51       76.14       77.21       78.26       79.15       79.88       80.47    
        80.95       81.34       81.67       81.93       82.16       82.36       82.53       82.70       82.85       83.00    
        83.15       83.31       83.46       83.62       83.78       83.93       84.08       84.23       84.36       84.49    
  32    85.31       86.05       86.62       87.06       87.38       87.59       87.70       87.71       87.63       87.44    
        87.15       86.74       86.14       85.43       84.95       84.44       83.89       83.28       82.60       81.83    
        81.00       80.15       79.40       78.99       79.20       79.76       80.42       81.06       81.62       82.10    
        82.50       82.84       83.13       83.37       83.57       83.75       83.91       84.05       84.19       84.32    
        84.44       84.57       84.69       84.81       84.92       85.03       85.12       85.20       85.26       85.31    
  33    86.12       86.95       87.60       88.09       88.45       88.70       88.85       88.90       88.85       88.72    
        88.49       88.14       87.66       87.00       86.49       86.01       85.51       84.98       84.41       83.81    
        83.18       82.59       82.11       81.86       81.92       82.21       82.61       83.03       83.44       83.80    
        84.12       84.40       84.63       84.84       85.01       85.17       85.30       85.42       85.53       85.64    
        85.74       85.83       85.92       86.01       86.08       86.14       86.18       86.20       86.17       86.12    
  34    86.94       87.74       88.40       88.91       89.28       89.54       89.71       89.78       89.76       89.67    
        89.49       89.22       88.86       88.42       88.00       87.59       87.16       86.72       86.26       85.79    
        85.34       84.92       84.60       84.42       84.41       84.54       84.77       85.03       85.30       85.55    
        85.78       85.99       86.17       86.33       86.47       86.60       86.70       86.80       86.89       86.97    
        87.04       87.10       87.16       87.21       87.25       87.27       87.27       87.22       87.12       86.94    
  35    87.76       88.68       89.35       89.85       90.22       90.48       90.65       90.74       90.76       90.70    
        90.58       90.38       90.13       89.83       89.51       89.18       88.84       88.48       88.12       87.76    
        87.45       87.17       86.94       86.80       86.76       86.79       86.89       87.02       87.17       87.32    
        87.47       87.61       87.73       87.85       87.95       88.04       88.12       88.19       88.25       88.30    
        88.34       88.38       88.41       88.43       88.43       88.43       88.39       88.31       88.14       87.76    
  36    88.57       89.44       90.07       90.53       90.88       91.14       91.31       91.40       91.43       91.40    
        91.31       91.16       90.97       90.73       90.47       90.19       89.90       89.60       89.30       88.98    
        88.70       88.48       88.30       88.18       88.11       88.11       88.14       88.20       88.29       88.38    
        88.48       88.58       88.68       88.77       88.85       88.92       88.98       89.03       89.07       89.10    
        89.13       89.15       89.16       89.16       89.16       89.13       89.10       89.02       88.88       88.57    
  37    89.39       90.01       90.52       90.94       91.26       91.49       91.66       91.75       91.78       91.75    
        91.67       91.54       91.36       91.14       90.89       90.63       90.36       90.08       89.80       89.49    
        89.11       88.87       88.69       88.58       88.52       88.50       88.53       88.58       88.65       88.73    
        88.82       88.91       89.00       89.08       89.15       89.22       89.27       89.32       89.35       89.38    
        89.40       89.41       89.42       89.42       89.41       89.39       89.36       89.33       89.31       89.39    
  38    90.20       90.67       91.09       91.43       91.71       91.93       92.07       92.16       92.19       92.16    
        92.08       91.96       91.79       91.58       91.34       91.08       90.81       90.56       90.34       90.14    
        89.80       89.56       89.41       89.32       89.28       89.28       89.30       89.35       89.41       89.48    
        89.56       89.64       89.71       89.78       89.84       89.89       89.93       89.96       89.98       89.99    
        90.00       90.00       90.00       89.99       89.98       89.97       89.95       89.95       90.00       90.20    
  39    91.02       91.38       91.71       92.00       92.24       92.42       92.55       92.62       92.65       92.62    
        92.54       92.42       92.25       92.04       91.80       91.53       91.25       91.02       90.87       90.77    
        90.64       90.53       90.46       90.43       90.42       90.44       90.47       90.51       90.57       90.63    
        90.69       90.75       90.81       90.86       90.90       90.94       90.96       90.96       90.96       90.94    
        90.93       90.91       90.89       90.87       90.86       90.85       90.85       90.86       90.92       91.02    
  40    91.84       92.12       92.39       92.62       92.82       92.97       93.08       93.14       93.16       93.13    
        93.05       92.93       92.76       92.55       92.29       91.98       91.66       91.39       91.34       91.37    
        91.40       91.45       91.48       91.51       91.54       91.58       91.62       91.67       91.72       91.77    
        91.82       91.87       91.92       91.95       91.98       91.99       92.00       91.98       91.95       91.90    
        91.85       91.81       91.78       91.75       91.73       91.72       91.73       91.74       91.78       91.84    
  41    92.65       92.88       93.09       93.28       93.44       93.57       93.66       93.71       93.71       93.68    
        93.61       93.49       93.32       93.10       92.82       92.45       92.00       91.53       91.76       91.97    
        92.18       92.37       92.50       92.59       92.66       92.72       92.77       92.82       92.87       92.92    
        92.96       93.00       93.03       93.05       93.07       93.07       93.05       93.01       92.95       92.85    
        92.77       92.71       92.66       92.63       92.60       92.59       92.59       92.60       92.62       92.65    
  42    93.47       93.65       93.82       93.97       94.10       94.20       94.27       94.31       94.31       94.28    
        94.21       94.09       93.93       93.72       93.43       93.02       92.36       90.99       92.18       92.66    
        93.06       93.37       93.56       93.69       93.79       93.86       93.92       93.98       94.02       94.06    
        94.10       94.13       94.15       94.16       94.17       94.16       94.13       94.07       93.97       93.79    
        93.67       93.59       93.53       93.49       93.46       93.44       93.44       93.44       93.45       93.47    
  43    94.29       94.43       94.56       94.68       94.79       94.87       94.92       94.95       94.95       94.91    
        94.85       94.74       94.60       94.40       94.16       93.83       93.43       93.01       93.30       93.61    
        93.97       94.26       94.46       94.60       94.70       94.79       94.85       94.90       94.95       94.99    
        95.02       95.04       95.06       95.06       95.06       95.04       95.01       94.95       94.86       94.68    
        94.54       94.45       94.38       94.34       94.31       94.29       94.28       94.27       94.28       94.29    
  44    95.10       95.21       95.32       95.41       95.49       95.56       95.60       95.62       95.61       95.58    
        95.52       95.43       95.31       95.15       94.96       94.73       94.50       94.34       94.42       94.58    
        94.80       95.01       95.19       95.32       95.42       95.50       95.56       95.61       95.65       95.68    
        95.71       95.73       95.74       95.75       95.74       95.72       95.69       95.64       95.58       95.47    
        95.36       95.28       95.22       95.17       95.14       95.12       95.11       95.10       95.10       95.10    
  45    95.92       96.00       96.08       96.16       96.22       96.27       96.30       96.31       96.31       96.28    
        96.23       96.15       96.06       95.93       95.79       95.64       95.51       95.42       95.45       95.53    
        95.67       95.82       95.95       96.06       96.15       96.22       96.28       96.32       96.36       96.39    
        96.41       96.43       96.44       96.44       96.43       96.42       96.39       96.35       96.31       96.23    
        96.15       96.09       96.04       96.00       95.97       95.95       95.93       95.93       95.92       95.92    
  46    96.73       96.80       96.86       96.91       96.96       97.00       97.02       97.03       97.02       97.00    
        96.96       96.90       96.82       96.74       96.64       96.54       96.45       96.41       96.41       96.46    
        96.54       96.65       96.75       96.83       96.90       96.96       97.01       97.05       97.08       97.10    
        97.12       97.13       97.14       97.14       97.14       97.12       97.10       97.07       97.04       96.99    
        96.93       96.88       96.84       96.81       96.78       96.77       96.75       96.74       96.74       96.73    
  47    97.55       97.60       97.64       97.68       97.71       97.74       97.75       97.76       97.75       97.73    
        97.70       97.66       97.61       97.55       97.48       97.42       97.37       97.34       97.34       97.36    
        97.42       97.49       97.55       97.61       97.67       97.71       97.75       97.78       97.80       97.82    
        97.84       97.85       97.85       97.85       97.85       97.84       97.82       97.80       97.78       97.75    
        97.70       97.67       97.64       97.61       97.59       97.58       97.57       97.56       97.56       97.55    
  48    98.37       98.40       98.42       98.45       98.47       98.49       98.50       98.50       98.50       98.48    
        98.46       98.44       98.40       98.36       98.32       98.28       98.25       98.24       98.24       98.25    
        98.28       98.32       98.37       98.41       98.44       98.47       98.50       98.52       98.53       98.55    
        98.55       98.56       98.56       98.56       98.56       98.56       98.55       98.53       98.52       98.50    
        98.47       98.45       98.43       98.41       98.40       98.39       98.38       98.37       98.37       98.37    
  49    99.18       99.20       99.21       99.22       99.23       99.24       99.25       99.25       99.25       99.24    
        99.23       99.22       99.20       99.18       99.16       99.14       99.13       99.12       99.12       99.13    
        99.14       99.16       99.18       99.20       99.22       99.23       99.25       99.26       99.27       99.27    
        99.28       99.28       99.28       99.28       99.28       99.28       99.27       99.27       99.26       99.25    
        99.24       99.22       99.21       99.21       99.20       99.19       99.19       99.19       99.19       99.18    
  50    100.0       100.0       100.0       100.0       100.0       100.0       100.0       100.0       100.0       100.0    
        100.0       100.0       100.0       100.0       100.0       100.0       100.0       100.0       100.0       100.0    
        100.0       100.0       100.0       100.0       100.0       100.0       100.0       100.0       100.0       100.0    
        100.0       100.0       100.0       100.0       100.0       100.0       100.0       100.0       100.0       100.0    
        100.0       100.0       100.0       100.0       100.0       100.0       100.0       100.0       100.0       100.0    

 HEAD WILL BE SAVED ON UNIT   51 AT END OF TIME STEP   1, STRESS PERIOD    2
1
  VOLUMETRIC BUDGET FOR ENTIRE MODEL AT END OF TIME STEP  1 IN STRESS PERIOD   2
  ------------------------------------------------------------------------------

     CUMULATIVE VOLUMES      L**3       RATES FOR THIS TIME STEP      L**3/T
     ------------------                 ------------------------

           IN:                                      IN:
           ---                                      ---
             STORAGE =           0.0000               STORAGE =           0.0000
       CONSTANT HEAD =   285836960.0000         CONSTANT HEAD =      391343.0310
               WELLS =           0.0000                 WELLS =           0.0000

            TOTAL IN =   285836960.0000              TOTAL IN =      391343.0310

          OUT:                                     OUT:
          ----                                     ----
             STORAGE =           0.0000               STORAGE =           0.0000
       CONSTANT HEAD =    88994144.0000         CONSTANT HEAD =      121843.0160
               WELLS =   196842800.0000                 WELLS =      269500.0000

           TOTAL OUT =   285836928.0000             TOTAL OUT =      391343.0000

            IN - OUT =          16.0000              IN - OUT =       1.5625E-02

 PERCENT DISCREPANCY =           0.00     PERCENT DISCREPANCY =           0.00






          TIME SUMMARY AT END OF TIME STEP   1 IN STRESS PERIOD    2
                    SECONDS     MINUTES      HOURS       DAYS        YEARS
                    -----------------------------------------------------------
   TIME STEP LENGTH 3.15533E+07 5.25888E+05  8764.8      365.20     0.99986    
 STRESS PERIOD TIME 3.15533E+07 5.25888E+05  8764.8      365.20     0.99986    
         TOTAL TIME 6.31066E+07 1.05178E+06  17530.      730.40      1.9997    
1
1
                            STRESS PERIOD NO.    3, LENGTH =   365.2000    
                            -----------------------------------------------

                              NUMBER OF TIME STEPS =     1

                               MULTIPLIER FOR DELT =     1.000

                            INITIAL TIME STEP SIZE =   365.2000    

 WELL NO.  LAYER   ROW   COL   STRESS RATE         
 --------------------------------------------------
      1      1     10     15     -0.3850E+05
      2      1     18     40     -0.7700E+05
      3      1     29     24     -0.9625E+05
      4      1     42     18     -0.5775E+05

      4 WELLS
 
 SOLVING FOR HEAD 

 OUTPUT CONTROL FOR STRESS PERIOD    3   TIME STEP   1
    PRINT HEAD FOR ALL LAYERS
    PRINT BUDGET
    SAVE HEAD FOR ALL LAYERS
    SAVE BUDGET
 UBDSV2 SAVING "   CONSTANT HEAD" ON UNIT  53 AT TIME STEP  1, STRESS PERIOD   3
 UBDSV1 SAVING "FLOW RIGHT FACE " ON UNIT  53 AT TIME STEP  1, STRESS PERIOD   3
 UBDSV1 SAVING "FLOW FRONT FACE " ON UNIT  53 AT TIME STEP  1, STRESS PERIOD   3
 UBDSV4 SAVING "           WELLS" ON UNIT  53 AT TIME STEP  1, STRESS PERIOD   3
1
              HEAD IN LAYER   1 AT END OF TIME STEP   1 IN STRESS PERIOD    3
  ---------------------------------------------------------------------------

            1           2           3           4           5           6           7           8           9          10
           11          12          13          14          15          16          17          18          19          20
           21          22          23          24          25          26          27          28          29          30
           31          32          33          34          35          36          37          38          39          40
           41          42          43          44          45          46          47          48          49          50
 ........................................................................................................................
   1    60.00       60.00       60.00       60.00       60.00       60.00       60.00       60.00       60.00       60.00    
        60.00       60.00       60.00       60.00       60.00       60.00       60.00       60.00       60.00       60.00    
        60.00       60.00       60.00       60.00       60.00       60.00       60.00       60.00       60.00       60.00    
        60.00       60.00       60.00       60.00       60.00       60.00       60.00       60.00       60.00       60.00    
        60.00       60.00       60.00       60.00       60.00       60.00       60.00       60.00       60.00       60.00    
   2    60.82       60.70       60.58       60.45       60.31       60.16       60.00       59.82       59.63       59.43    
        59.22       59.11       59.09       59.10       59.15       59.23       59.34       59.48       59.62       59.76    
        59.90       60.02       60.12       60.21       60.28       60.34       60.39       60.42       60.45       60.47    
        60.49       60.50       60.51       60.52       60.52       60.53       60.53       60.54       60.55       60.56    
        60.58       60.60       60.62       60.64       60.67       60.69       60.72       60.75       60.78       60.82    
   3    61.63       61.40       61.16       60.91       60.64       60.34       60.01       59.66       59.27       58.86    
        58.44       58.20       58.16       58.17       58.26       58.43       58.67       58.95       59.24       59.53    
        59.80       60.05       60.26       60.43       60.58       60.69       60.79       60.86       60.91       60.95    
        60.98       61.01       61.02       61.03       61.04       61.05       61.06       61.08       61.10       61.12    
        61.15       61.19       61.23       61.28       61.33       61.39       61.45       61.51       61.57       61.63    
   4    62.45       62.11       61.76       61.39       60.99       60.55       60.06       59.52       58.93       58.29    
        57.63       57.24       57.16       57.17       57.30       57.57       57.95       58.40       58.87       59.32    
        59.74       60.11       60.43       60.69       60.90       61.07       61.20       61.31       61.38       61.44    
        61.48       61.51       61.53       61.54       61.55       61.57       61.59       61.61       61.64       61.68    
        61.72       61.78       61.84       61.91       61.99       62.08       62.17       62.26       62.35       62.45    
   5    63.27       62.83       62.37       61.89       61.37       60.80       60.16       59.44       58.64       57.75    
        56.81       56.23       56.09       56.05       56.20       56.58       57.16       57.82       58.51       59.15    
        59.73       60.23       60.65       60.99       61.27       61.49       61.66       61.78       61.87       61.94    
        61.98       62.02       62.04       62.05       62.06       62.08       62.10       62.13       62.17       62.22    
        62.28       62.36       62.44       62.54       62.65       62.76       62.88       63.01       63.14       63.27    
   6    64.08       63.56       63.01       62.44       61.82       61.12       60.34       59.45       58.43       57.28    
        56.00       55.18       54.90       54.74       54.86       55.42       56.27       57.23       58.18       59.05    
        59.80       60.43       60.95       61.37       61.70       61.95       62.15       62.29       62.39       62.46    
        62.50       62.53       62.55       62.55       62.57       62.59       62.61       62.64       62.69       62.75    
        62.83       62.93       63.04       63.16       63.30       63.44       63.59       63.75       63.92       64.08    
   7    64.90       64.30       63.69       63.04       62.33       61.53       60.63       59.58       58.36       56.93    
        55.26       54.13       53.61       53.14       53.10       53.95       55.26       56.66       57.95       59.06    
        59.99       60.74       61.35       61.82       62.20       62.48       62.69       62.84       62.94       63.00    
        63.03       63.05       63.05       63.05       63.06       63.08       63.10       63.14       63.19       63.27    
        63.36       63.48       63.61       63.77       63.93       64.11       64.30       64.50       64.70       64.90    
   8    65.71       65.07       64.40       63.69       62.92       62.05       61.06       59.89       58.50       56.81    
        54.74       53.23       52.27       51.09       50.45       52.02       54.18       56.20       57.89       59.26    
        60.34       61.20       61.87       62.39       62.79       63.08       63.30       63.44       63.53       63.57    
        63.58       63.57       63.55       63.55       63.55       63.56       63.58       63.62       63.68       63.76    
        63.88       64.01       64.18       64.36       64.56       64.77       65.00       65.23       65.47       65.71    
   9    66.53       65.85       65.16       64.42       63.61       62.70       61.66       60.43       58.93       57.07    
[...]
        71.97       71.75       71.58       71.46       71.41       71.42       71.46       71.52       71.58       71.61    
        71.62       71.60       71.53       71.41       71.26       71.07       70.87       70.73       70.69       70.81    
        71.13       71.60       72.17       72.79       73.44       74.11       74.82       75.55       76.33       77.14    
  23    77.96       78.43       78.75       78.92       78.95       78.85       78.62       78.23       77.67       76.88    
        75.76       74.97       74.78       74.54       74.27       73.99       73.68       73.35       73.02       72.67    
        72.35       72.05       71.82       71.69       71.65       71.70       71.81       71.94       72.07       72.19    
        72.27       72.31       72.31       72.28       72.21       72.13       72.05       72.02       72.07       72.23    
        72.51       72.91       73.39       73.94       74.52       75.14       75.79       76.48       77.20       77.96    
  24    78.78       79.63       80.13       80.40       80.51       80.47       80.28       79.95       79.43       78.65    
        77.40       76.10       75.79       75.45       75.11       74.75       74.38       73.98       73.56       73.12    
        72.69       72.29       71.98       71.81       71.80       71.92       72.13       72.36       72.59       72.79    
        72.95       73.07       73.14       73.18       73.19       73.19       73.19       73.23       73.33       73.51    
        73.78       74.14       74.56       75.05       75.57       76.14       76.73       77.37       78.05       78.78    
  25    79.59       80.46       80.97       81.26       81.40       81.39       81.24       80.94       80.48       79.83    
        78.92       77.61       76.94       76.47       76.06       75.64       75.20       74.71       74.18       73.61    
        73.02       72.46       72.00       71.76       71.81       72.08       72.45       72.84       73.20       73.51    
        73.77       73.97       74.11       74.22       74.30       74.37       74.43       74.53       74.66       74.86    
        75.11       75.44       75.82       76.24       76.71       77.22       77.75       78.32       78.93       79.59    
  26    80.41       80.89       81.26       81.51       81.63       81.62       81.48       81.20       80.77       80.20    
        79.47       78.65       78.02       77.56       77.12       76.66       76.15       75.57       74.92       74.19    
        73.38       72.54       71.80       71.40       71.61       72.16       72.80       73.40       73.93       74.37    
        74.73       75.01       75.23       75.41       75.55       75.67       75.79       75.93       76.09       76.29    
        76.53       76.82       77.16       77.54       77.94       78.38       78.85       79.35       79.87       80.41    
  27    81.22       81.43       81.68       81.88       81.99       81.98       81.85       81.60       81.22       80.71    
        80.11       79.48       78.95       78.61       78.20       77.72       77.16       76.51       75.74       74.83    
        73.76       72.53       71.27       70.44       71.07       72.14       73.17       74.05       74.75       75.32    
        75.77       76.12       76.40       76.63       76.82       76.98       77.14       77.30       77.47       77.67    
        77.90       78.17       78.46       78.79       79.15       79.52       79.92       80.34       80.78       81.22    
  28    82.04       82.18       82.39       82.58       82.69       82.70       82.61       82.40       82.07       81.64    
        81.13       80.58       80.06       79.73       79.35       78.87       78.27       77.56       76.70       75.64    
        74.29       72.54       70.30       68.03       70.10       72.15       73.70       74.85       75.72       76.38    
        76.90       77.30       77.63       77.89       78.11       78.30       78.48       78.65       78.83       79.03    
        79.24       79.48       79.74       80.02       80.32       80.64       80.98       81.32       81.68       82.04    
  29    82.86       83.11       83.37       83.58       83.72       83.77       83.73       83.57       83.31       82.95    
        82.51       82.01       81.46       81.02       80.62       80.11       79.50       78.77       77.87       76.73    
        75.23       73.05       69.36       61.26       69.17       72.66       74.64       75.95       76.88       77.59    
        78.14       78.57       78.91       79.19       79.43       79.63       79.82       80.00       80.18       80.36    
        80.56       80.77       80.99       81.23       81.48       81.74       82.02       82.29       82.57       82.86    
  30    83.67       84.04       84.38       84.65       84.85       84.95       84.95       84.85       84.65       84.35    
        83.96       83.48       82.90       82.40       81.98       81.47       80.86       80.13       79.26       78.19    
        76.84       75.08       72.83       70.56       72.64       74.69       76.25       77.41       78.28       78.96    
        79.49       79.91       80.26       80.54       80.78       80.98       81.17       81.34       81.51       81.68    
        81.86       82.04       82.23       82.43       82.63       82.84       83.05       83.26       83.47       83.67    
  31    84.49       85.01       85.45       85.81       86.07       86.22       86.28       86.23       86.09       85.85    
        85.50       85.04       84.44       83.88       83.43       82.92       82.33       81.65       80.86       79.93    
        78.84       77.60       76.33       75.51       76.14       77.21       78.26       79.15       79.88       80.47    
        80.95       81.34       81.67       81.93       82.16       82.36       82.53       82.70       82.85       83.00    
        83.15       83.31       83.46       83.62       83.78       83.93       84.08       84.23       84.36       84.49    
  32    85.31       86.05       86.62       87.06       87.38       87.59       87.70       87.71       87.63       87.44    
        87.15       86.74       86.14       85.43       84.95       84.44       83.89       83.28       82.60       81.83    
        81.00       80.15       79.40       78.99       79.20       79.76       80.42       81.06       81.62       82.10    
        82.50       82.84       83.13       83.37       83.57       83.75       83.91       84.05       84.19       84.32    
        84.44       84.57       84.69       84.81       84.92       85.03       85.12       85.20       85.26       85.31    
  33    86.12       86.95       87.60       88.09       88.45       88.70       88.85       88.90       88.85       88.72    
        88.49       88.14       87.66       87.00       86.49       86.01       85.51       84.98       84.41       83.81    
        83.18       82.59       82.11       81.86       81.92       82.21       82.61       83.03       83.44       83.80    
        84.12       84.40       84.63       84.84       85.01       85.17       85.30       85.42       85.53       85.64    
        85.74       85.83       85.92       86.01       86.08       86.14       86.18       86.20       86.17       86.12    
  34    86.94       87.74       88.40       88.91       89.28       89.54       89.71       89.78       89.76       89.67    
        89.49       89.22       88.86       88.42       88.00       87.59       87.16       86.72       86.26       85.79    
        85.34       84.92       84.60       84.42       84.41       84.54       84.77       85.03       85.30       85.55    
        85.78       85.99       86.17       86.33       86.47       86.60       86.70       86.80       86.89       86.97    
        87.04       87.10       87.16       87.21       87.25       87.27       87.27       87.22       87.12       86.94    
  35    87.76       88.68       89.35       89.85       90.22       90.48       90.65       90.74       90.76       90.70    
        90.58       90.38       90.13       89.83       89.51       89.18       88.84       88.48       88.12       87.76    
        87.45       87.17       86.94       86.80       86.76       86.79       86.89       87.02       87.17       87.32    
        87.47       87.61       87.73       87.85       87.95       88.04       88.12       88.19       88.25       88.30    
        88.34       88.38       88.41       88.43       88.43       88.43       88.39       88.31       88.14       87.76    
  36    88.57       89.44       90.07       90.53       90.88       91.14       91.31       91.40       91.43       91.40    
        91.31       91.16       90.97       90.73       90.47       90.19       89.90       89.60       89.30       88.98    
        88.70       88.48       88.30       88.18       88.11       88.11       88.14       88.20       88.29       88.38    
        88.48       88.58       88.68       88.77       88.85       88.92       88.98       89.03       89.07       89.10    
        89.13       89.15       89.16       89.16       89.16       89.13       89.10       89.02       88.88       88.57    
  37    89.39       90.01       90.52       90.94       91.26       91.49       91.66       91.75       91.78       91.75    
        91.67       91.54       91.36       91.14       90.89       90.63       90.36       90.08       89.80       89.49    
        89.11       88.87       88.69       88.58       88.52       88.50       88.53       88.58       88.65       88.73    
        88.82       88.91       89.00       89.08       89.15       89.22       89.27       89.32       89.35       89.38    
        89.40       89.41       89.42       89.42       89.41       89.39       89.36       89.33       89.31       89.39    
  38    90.20       90.67       91.09       91.43       91.71       91.93       92.07       92.16       92.19       92.16    
        92.08       91.96       91.79       91.58       91.34       91.08       90.81       90.56       90.34       90.14    
        89.80       89.56       89.41       89.32       89.28       89.28       89.30       89.35       89.41       89.48    
        89.56       89.64       89.71       89.78       89.84       89.89       89.93       89.96       89.98       89.99    
        90.00       90.00       90.00       89.99       89.98       89.97       89.95       89.95       90.00       90.20    
  39    91.02       91.38       91.71       92.00       92.24       92.42       92.55       92.62       92.65       92.62    
        92.54       92.42       92.25       92.04       91.80       91.53       91.25       91.02       90.87       90.77    
        90.64       90.53       90.46       90.43       90.42       90.44       90.47       90.51       90.57       90.63    
        90.69       90.75       90.81       90.86       90.90       90.94       90.96       90.96       90.96       90.94    
        90.93       90.91       90.89       90.87       90.86       90.85       90.85       90.86       90.92       91.02    
  40    91.84       92.12       92.39       92.62       92.82       92.97       93.08       93.14       93.16       93.13    
        93.05       92.93       92.76       92.55       92.29       91.98       91.66       91.39       91.34       91.37    
        91.40       91.45       91.48       91.51       91.54       91.58       91.62       91.67       91.72       91.77    
        91.82       91.87       91.92       91.95       91.98       91.99       92.00       91.98       91.95       91.90    
        91.85       91.81       91.78       91.75       91.73       91.72       91.73       91.74       91.78       91.84    
  41    92.65       92.88       93.09       93.28       93.44       93.57       93.66       93.71       93.71       93.68    
        93.61       93.49       93.32       93.10       92.82       92.45       92.00       91.53       91.76       91.97    
        92.18       92.37       92.50       92.59       92.66       92.72       92.77       92.82       92.87       92.92    
        92.96       93.00       93.03       93.05       93.07       93.07       93.05       93.01       92.95       92.85    
        92.77       92.71       92.66       92.63       92.60       92.59       92.59       92.60       92.62       92.65    
  42    93.47       93.65       93.82       93.97       94.10       94.20       94.27       94.31       94.31       94.28    
        94.21       94.09       93.93       93.72       93.43       93.02       92.36       90.99       92.18       92.66    
        93.06       93.37       93.56       93.69       93.79       93.86       93.92       93.98       94.02       94.06    
        94.10       94.13       94.15       94.16       94.17       94.16       94.13       94.07       93.97       93.79    
        93.67       93.59       93.53       93.49       93.46       93.44       93.44       93.44       93.45       93.47    
  43    94.29       94.43       94.56       94.68       94.79       94.87       94.92       94.95       94.95       94.91    
        94.85       94.74       94.60       94.40       94.16       93.83       93.43       93.01       93.30       93.61    
        93.97       94.26       94.46       94.60       94.70       94.79       94.85       94.90       94.95       94.99    
        95.02       95.04       95.06       95.06       95.06       95.04       95.01       94.95       94.86       94.68    
        94.54       94.45       94.38       94.34       94.31       94.29       94.28       94.27       94.28       94.29    
  44    95.10       95.21       95.32       95.41       95.49       95.56       95.60       95.62       95.61       95.58    
        95.52       95.43       95.31       95.15       94.96       94.73       94.50       94.34       94.42       94.58    
        94.80       95.01       95.19       95.32       95.42       95.50       95.56       95.61       95.65       95.68    
        95.71       95.73       95.74       95.75       95.74       95.72       95.69       95.64       95.58       95.47    
        95.36       95.28       95.22       95.17       95.14       95.12       95.11       95.10       95.10       95.10    
  45    95.92       96.00       96.08       96.16       96.22       96.27       96.30       96.31       96.31       96.28    
        96.23       96.15       96.06       95.93       95.79       95.64       95.51       95.42       95.45       95.53    
        95.67       95.82       95.95       96.06       96.15       96.22       96.28       96.32       96.36       96.39    
        96.41       96.43       96.44       96.44       96.43       96.42       96.39       96.35       96.31       96.23    
        96.15       96.09       96.04       96.00       95.97       95.95       95.93       95.93       95.92       95.92    
  46    96.73       96.80       96.86       96.91       96.96       97.00       97.02       97.03       97.02       97.00    
        96.96       96.90       96.82       96.74       96.64       96.54       96.45       96.41       96.41       96.46    
        96.54       96.65       96.75       96.83       96.90       96.96       97.01       97.05       97.08       97.10    
        97.12       97.13       97.14       97.14       97.14       97.12       97.10       97.07       97.04       96.99    
        96.93       96.88       96.84       96.81       96.78       96.77       96.75       96.74       96.74       96.73    
  47    97.55       97.60       97.64       97.68       97.71       97.74       97.75       97.76       97.75       97.73    
        97.70       97.66       97.61       97.55       97.48       97.42       97.37       97.34       97.34       97.36    
        97.42       97.49       97.55       97.61       97.67       97.71       97.75       97.78       97.80       97.82    
        97.84       97.85       97.85       97.85       97.85       97.84       97.82       97.80       97.78       97.75    
        97.70       97.67       97.64       97.61       97.59       97.58       97.57       97.56       97.56       97.55    
  48    98.37       98.40       98.42       98.45       98.47       98.49       98.50       98.50       98.50       98.48    
        98.46       98.44       98.40       98.36       98.32       98.28       98.25       98.24       98.24       98.25    
        98.28       98.32       98.37       98.41       98.44       98.47       98.50       98.52       98.53       98.55    
        98.55       98.56       98.56       98.56       98.56       98.56       98.55       98.53       98.52       98.50    
        98.47       98.45       98.43       98.41       98.40       98.39       98.38       98.37       98.37       98.37    
  49    99.18       99.20       99.21       99.22       99.23       99.24       99.25       99.25       99.25       99.24    
        99.23       99.22       99.20       99.18       99.16       99.14       99.13       99.12       99.12       99.13    
        99.14       99.16       99.18       99.20       99.22       99.23       99.25       99.26       99.27       99.27    
        99.28       99.28       99.28       99.28       99.28       99.28       99.27       99.27       99.26       99.25    
        99.24       99.22       99.21       99.21       99.20       99.19       99.19       99.19       99.19       99.18    
  50    100.0       100.0       100.0       100.0       100.0       100.0       100.0       100.0       100.0       100.0    
        100.0       100.0       100.0       100.0       100.0       100.0       100.0       100.0       100.0       100.0    
        100.0       100.0       100.0       100.0       100.0       100.0       100.0       100.0       100.0       100.0    
        100.0       100.0       100.0       100.0       100.0       100.0       100.0       100.0       100.0       100.0    
        100.0       100.0       100.0       100.0       100.0       100.0       100.0       100.0       100.0       100.0    

 HEAD WILL BE SAVED ON UNIT   51 AT END OF TIME STEP   1, STRESS PERIOD   10
1
  VOLUMETRIC BUDGET FOR ENTIRE MODEL AT END OF TIME STEP  1 IN STRESS PERIOD  10
  ------------------------------------------------------------------------------

     CUMULATIVE VOLUMES      L**3       RATES FOR THIS TIME STEP      L**3/T
     ------------------                 ------------------------

           IN:                                      IN:
           ---                                      ---
             STORAGE =           0.0000               STORAGE =           0.0000
       CONSTANT HEAD =  1429184900.0000         CONSTANT HEAD =      391343.0310
               WELLS =           0.0000                 WELLS =           0.0000

            TOTAL IN =  1429184900.0000              TOTAL IN =      391343.0310

          OUT:                                     OUT:
          ----                                     ----
             STORAGE =           0.0000               STORAGE =           0.0000
       CONSTANT HEAD =   444970656.0000         CONSTANT HEAD =      121843.0160
               WELLS =   984213888.0000                 WELLS =      269500.0000

           TOTAL OUT =  1429184510.0000             TOTAL OUT =      391343.0000

            IN - OUT =         352.0000              IN - OUT =       1.5625E-02

 PERCENT DISCREPANCY =           0.00     PERCENT DISCREPANCY =           0.00






          TIME SUMMARY AT END OF TIME STEP   1 IN STRESS PERIOD   10
                    SECONDS     MINUTES      HOURS       DAYS        YEARS
                    -----------------------------------------------------------
   TIME STEP LENGTH 3.15533E+07 5.25888E+05  8764.8      365.20     0.99986    
 STRESS PERIOD TIME 3.15533E+07 5.25888E+05  8764.8      365.20     0.99986    
         TOTAL TIME 3.15533E+08 5.25888E+06  87648.      3652.0      9.9986    
1
