                                  MODFLOW-2000
      U.S. GEOLOGICAL SURVEY MODULAR FINITE-DIFFERENCE GROUND-WATER FLOW MODEL
                    VERSION 1.19.01 03/25/2010 CHPRC Build 7


 This model run produced both GLOBAL and LIST files.  This is the LIST file.

 
 # BAS6 package for  MODFLOW-2000, generated by Flopy.                           
 THE FREE FORMAT OPTION HAS BEEN SELECTED
    1 LAYERS        51 ROWS        51 COLUMNS
   10 STRESS PERIOD(S) IN SIMULATION

 BAS6 -- BASIC PACKAGE, VERSION 6, 1/11/2000 INPUT READ FROM UNIT   13
          5 ELEMENTS IN IR ARRAY ARE USED BY BAS

 WEL6 -- WELL PACKAGE, VERSION 6, 1/11/2000 INPUT READ FROM UNIT   20
 # WEL package for  MODFLOW-2000, generated by Flopy.
 No named parameters
 MAXIMUM OF      4 ACTIVE WELLS AT ONE TIME
 CELL-BY-CELL FLOWS WILL BE SAVED ON UNIT   53
         16 ELEMENTS IN RX ARRAY ARE USED BY WEL

         16  ELEMENTS OF RX ARRAY USED OUT OF         16
          0  ELEMENTS OF RZ ARRAY USED OUT OF          1
          5  ELEMENTS OF IR ARRAY USED OUT OF          5
1
 # BAS6 package for  MODFLOW-2000, generated by Flopy.                           
                                                                                 



                     BOUNDARY ARRAY FOR LAYER   1
 READING ON UNIT   13 WITH FORMAT: (51I10)             

 AQUIFER HEAD WILL BE SET TO -999.99     AT ALL NO-FLOW NODES (IBOUND=0).



                       INITIAL HEAD FOR LAYER   1
 READING ON UNIT   13 WITH FORMAT: (51E15.6)           
 # OC package for  MODFLOW-2000, generated by Flopy.

 OUTPUT CONTROL IS SPECIFIED ONLY AT TIME STEPS FOR WHICH OUTPUT IS DESIRED
 COMPACT CELL-BY-CELL BUDGET FILES WILL BE WRITTEN
 AUXILIARY DATA WILL BE SAVED IN CELL-BY-CELL BUDGET FILES
 HEAD PRINT FORMAT CODE IS   0    DRAWDOWN PRINT FORMAT CODE IS   0
 HEADS WILL BE SAVED ON UNIT   51    DRAWDOWNS WILL BE SAVED ON UNIT    0
1
                            STRESS PERIOD NO.    1, LENGTH =   365.2000    
                            -----------------------------------------------

                              NUMBER OF TIME STEPS =     1

                               MULTIPLIER FOR DELT =     1.000

                            INITIAL TIME STEP SIZE =   365.2000    

 WELL NO.  LAYER   ROW   COL   STRESS RATE         
 --------------------------------------------------
      1      1     11     16     -0.3850E+05
      2      1     19     41     -0.7700E+05
      3      1     30     25     -0.9625E+05
      4      1     43     19     -0.5775E+05

      4 WELLS
 
 SOLVING FOR HEAD 

 OUTPUT CONTROL FOR STRESS PERIOD    1   TIME STEP   1
    PRINT HEAD FOR ALL LAYERS
    PRINT BUDGET
    SAVE HEAD FOR ALL LAYERS
    SAVE BUDGET
 UBDSV2 SAVING "   CONSTANT HEAD" ON UNIT  53 AT TIME STEP  1, STRESS PERIOD   1
 UBDSV1 SAVING "FLOW RIGHT FACE " ON UNIT  53 AT TIME STEP  1, STRESS PERIOD   1
 UBDSV1 SAVING "FLOW FRONT FACE " ON UNIT  53 AT TIME STEP  1, STRESS PERIOD   1
 UBDSV4 SAVING "           WELLS" ON UNIT  53 AT TIME STEP  1, STRESS PERIOD   1
1
              HEAD IN LAYER   1 AT END OF TIME STEP   1 IN STRESS PERIOD    1
  ---------------------------------------------------------------------------

            1           2           3           4           5           6           7           8           9          10
           11          12          13          14          15          16          17          18          19          20
           21          22          23          24          25          26          27          28          29          30
           31          32          33          34          35          36          37          38          39          40
           41          42          43          44          45          46          47          48          49          50
           51
 ........................................................................................................................
   1    100.0       100.0       100.0       100.0       100.0       100.0       100.0       100.0       100.0       100.0    
        100.0       100.0       100.0       100.0       100.0       100.0       100.0       100.0       100.0       100.0    
        100.0       100.0       100.0       100.0       100.0       100.0       100.0       100.0       100.0       100.0    
        100.0       100.0       100.0       100.0       100.0       100.0       100.0       100.0       100.0       100.0    
        100.0       100.0       100.0       100.0       100.0       100.0       100.0       100.0       100.0       100.0    
        100.0    
   2    99.20       98.99       98.77       98.56       98.33       98.10       97.86       97.60       97.34       97.08    
        96.91       96.86       96.82       96.79       96.78       96.80       96.84       96.92       97.01       97.13    
        97.25       97.37       97.50       97.62       97.74       97.85       97.97       98.08       98.19       98.30    
        98.42       98.53       98.60       98.63       98.66       98.69       98.72       98.75       98.78       98.81    
        98.84       98.87       98.90       98.93       98.97       99.01       99.04       99.08       99.12       99.16    
        99.20    
   3    98.40       97.98       97.55       97.12       96.67       96.21       95.72       95.22       94.69       94.15    
        93.82       93.72       93.62       93.56       93.53       93.57       93.66       93.81       94.01       94.24    
        94.49       94.74       94.99       95.24       95.48       95.71       95.93       96.16       96.38       96.60    
        96.83       97.06       97.20       97.25       97.31       97.38       97.45       97.50       97.56       97.61    
        97.67       97.73       97.80       97.87       97.94       98.01       98.09       98.16       98.24       98.32    
        98.40    
   4    97.60       96.97       96.34       95.70       95.03       94.33       93.61       92.85       92.06       91.23    
        90.73       90.56       90.40       90.28       90.23       90.27       90.42       90.66       90.98       91.34    
        91.73       92.11       92.50       92.87       93.22       93.57       93.90       94.24       94.57       94.90    
        95.24       95.58       95.80       95.88       95.96       96.06       96.16       96.25       96.33       96.41    
        96.50       96.59       96.69       96.80       96.90       97.01       97.13       97.24       97.36       97.48    
        97.60    
   5    96.80       95.98       95.14       94.29       93.41       92.49       91.53       90.52       89.45       88.33    
        87.64       87.39       87.15       86.94       86.83       86.87       87.08       87.43       87.90       88.42    
        88.96       89.49       90.01       90.51       90.98       91.44       91.88       92.32       92.75       93.19    
        93.64       94.10       94.38       94.49       94.60       94.73       94.87       94.99       95.09       95.20    
        95.32       95.45       95.58       95.72       95.87       96.02       96.17       96.32       96.48       96.64    
        96.80    
   6    96.00       94.99       93.97       92.92       91.83       90.70       89.50       88.24       86.89       85.47    
        84.57       84.22       83.84       83.51       83.29       83.30       83.59       84.10       84.76       85.47    
        86.20       86.89       87.55       88.17       88.76       89.32       89.86       90.40       90.94       91.48    
        92.04       92.60       92.96       93.09       93.24       93.40       93.57       93.72       93.85       93.99    
        94.14       94.30       94.47       94.64       94.82       95.01       95.21       95.40       95.60       95.80    
        96.00    
   7    95.20       94.01       92.81       91.58       90.30       88.96       87.55       86.04       84.41       82.67    
        81.55       81.07       80.50       79.94       79.53       79.46       79.87       80.63       81.56       82.53    
        83.46       84.33       85.13       85.87       86.56       87.21       87.85       88.48       89.11       89.75    
        90.41       91.09       91.51       91.67       91.85       92.05       92.26       92.44       92.60       92.76    
        92.95       93.14       93.34       93.56       93.78       94.01       94.24       94.48       94.72       94.96    
        95.20    
   8    94.40       93.05       91.69       90.29       88.83       87.31       85.68       83.94       82.06       80.00    
        78.65       77.99       77.16       76.24       75.43       75.14       75.80       76.99       78.33       79.61    
        80.78       81.83       82.76       83.61       84.39       85.13       85.85       86.56       87.28       88.01    
        88.77       89.56       90.05       90.24       90.45       90.68       90.93       91.15       91.33       91.53    
        91.74       91.97       92.21       92.46       92.72       92.99       93.27       93.55       93.83       94.12    
        94.40    
   9    93.60       92.11       90.60       89.05       87.44       85.75       83.94       82.00       79.87       77.53    
        75.95       75.10       73.91       72.41       70.81       69.86       71.20       73.20       75.14       76.82    
        78.24       79.44       80.49       81.42       82.27       83.07       83.85       84.63       85.42       86.24    
        87.10       88.00       88.57       88.79       89.03       89.30       89.59       89.84       90.05       90.27    
        90.52       90.78       91.06       91.36       91.66       91.97       92.29       92.62       92.94       93.27    
        93.60    
  10    92.80       91.19       89.55       87.87       86.13       84.29       82.34       80.23       77.91       75.33    
        73.57       72.54       70.97       68.69       65.54       62.28       65.93       69.48       72.21       74.28    
        75.90       77.22       78.33       79.31       80.20       81.04       81.86       82.69       83.54       84.44    
        85.39       86.41       87.05       87.30       87.59       87.90       88.22       88.51       88.75       89.00    
        89.28       89.58       89.90       90.24       90.59       90.95       91.32       91.69       92.06       92.43    
        92.80    
  11    92.00       90.28       88.54       86.76       84.91       82.96       80.89       78.66       76.21       73.49    
        71.63       70.53       68.75       65.82       60.39       47.80       60.76       66.59       69.94       72.20    
        73.87       75.20       76.31       77.28       78.17       79.02       79.86       80.72       81.61       82.58    
        83.62       84.76       85.49       85.79       86.12       86.47       86.84       87.16       87.42       87.71    
        88.02       88.36       88.73       89.11       89.51       89.92       90.33       90.75       91.17       91.58    
        92.00    
  12    91.20       89.40       87.58       85.71       83.78       81.76       79.61       77.30       74.79       72.03    
        70.19       69.19       67.68       65.47       62.38       59.12       62.72       66.16       68.76       70.69    
        72.19       73.39       74.42       75.34       76.19       77.01       77.84       78.70       79.62       80.63    
        81.76       83.04       83.89       84.24       84.63       85.03       85.44       85.79       86.08       86.39    
        86.74       87.12       87.53       87.97       88.42       88.88       89.35       89.82       90.28       90.74    
        91.20    
  13    90.40       88.54       86.66       84.74       82.75       80.68       78.49       76.15       73.62       70.89    
        69.12       68.35       67.32       65.99       64.53       63.60       64.82       66.59       68.25       69.63    
        70.79       71.77       72.65       73.45       74.23       75.00       75.80       76.63       77.54       78.56    
        79.74       81.17       82.22       82.66       83.12       83.58       84.03       84.40       84.71       85.04    
        85.42       85.84       86.31       86.81       87.32       87.85       88.37       88.88       89.39       89.90    
        90.40    
  14    89.60       87.70       85.78       83.82       81.81       79.71       77.51       75.17       72.67       69.97    
        68.24       67.77       67.25       66.67       66.13       65.92       66.37       67.15       68.00       68.81    
        69.56       70.26       70.94       71.60       72.27       72.97       73.70       74.49       75.36       76.33    
        77.48       78.99       80.45       81.05       81.61       82.13       82.61       83.00       83.31       83.65    
        84.05       84.52       85.06       85.63       86.22       86.81       87.39       87.96       88.51       89.06    
        89.60    
  15    88.80       86.88       84.94       82.97       80.95       78.85       76.67       74.36       71.90       69.23    
        67.64       67.45       67.24       67.04       66.91       66.91       67.10       67.44       67.87       68.35    
        68.85       69.37       69.92       70.49       71.09       71.73       72.42       73.16       73.98       74.89    
        75.92       77.12       78.58       79.47       80.15       80.71       81.21       81.58       81.87       82.19    
        82.61       83.14       83.77       84.44       85.11       85.78       86.42       87.04       87.64       88.22    
        88.80    
  16    88.00       86.07       84.13       82.17       80.16       78.09       75.95       73.71       71.36       68.87    
        67.51       67.37       67.22       67.10       67.03       67.06       67.20       67.45       67.78       68.16    
        68.59       69.06       69.55       70.08       70.65       71.27       71.93       72.65       73.43       74.28    
        75.22       76.23       77.28       78.12       78.80       79.36       79.84       80.17       80.40       80.65    
        81.04       81.67       82.43       83.24       84.02       84.77       85.48       86.15       86.79       87.40    
        88.00    
  17    87.20       85.28       83.35       81.40       79.42       77.40       75.32       73.17       70.94       68.63    
        67.41       67.30       67.19       67.10       67.06       67.08       67.19       67.37       67.63       67.94    
        68.30       68.71       69.15       69.64       70.17       70.76       71.39       72.07       72.81       73.60    
        74.44       75.32       76.17       76.93       77.57       78.10       78.53       78.79       78.90       78.98    
        79.23       80.06       81.06       82.05       82.97       83.80       84.57       85.29       85.95       86.59    
        87.20    
  18    86.40       84.50       82.59       80.67       78.74       76.77       74.77       72.71       70.61       68.45    
        67.32       67.22       67.13       67.06       67.02       67.03       67.10       67.23       67.42       67.67    
        67.97       68.32       68.71       69.15       69.65       70.19       70.79       71.44       72.13       72.87    
        73.64       74.41       75.17       75.85       76.45       76.94       77.32       77.49       77.43       77.15    
        76.84       78.28       79.71       80.94       81.99       82.91       83.73       84.47       85.16       85.79    
        86.40    
  19    85.60       83.72       81.84       79.96       78.08       76.18       74.26       72.31       70.32       68.30    
        67.24       67.15       67.06       66.98       66.93       66.92       66.95       67.03       67.16       67.35    
        67.59       67.88       68.22       68.62       69.07       69.58       70.14       70.76       71.42       72.11    
        72.82       73.54       74.23       74.87       75.43       75.91       76.26       76.40       76.19       75.33    
        72.70       76.51       78.56       79.99       81.14       82.11       82.96       83.72       84.40       85.03    
        85.60    
  20    84.80       82.94       81.09       79.25       77.43       75.61       73.78       71.94       70.07       68.17    
        67.17       67.07       66.98       66.88       66.80       66.75       66.74       66.77       66.85       66.97    
        67.15       67.38       67.67       68.02       68.44       68.91       69.45       70.04       70.67       71.33    
        72.01       72.69       73.34       73.95       74.51       74.99       75.38       75.63       75.58       75.28    
        74.97       76.50       78.03       79.34       80.46       81.43       82.28       83.04       83.72       84.31    
        84.80    
  21    84.00       82.15       80.32       78.53       76.78       75.05       73.32       71.59       69.84       68.06    
        67.11       67.01       66.89       66.76       66.65       66.56       66.50       66.47       66.49       66.55    
        66.66       66.83       67.06       67.37       67.74       68.19       68.70       69.27       69.88       70.53    
        71.19       71.85       72.50       73.10       73.66       74.16       74.59       74.95       75.13       75.23    
        75.51       76.48       77.63       78.75       79.77       80.69       81.52       82.26       82.93       83.52    
        84.00    
  22    83.20       81.33       79.52       77.78       76.10       74.47       72.87       71.27       69.66       67.99    
        67.08       66.96       66.80       66.63       66.47       66.33       66.21       66.13       66.08       66.07    
        66.12       66.22       66.39       66.64       66.97       67.39       67.89       68.46       69.07       69.72    
        70.38       71.04       71.68       72.30       72.87       73.39       73.87       74.28       74.64       75.00    
        75.49       76.26       77.18       78.12       79.03       79.88       80.66       81.39       82.05       82.65    
        83.20    
  23    82.40       80.46       78.65       76.96       75.38       73.87       72.41       70.97       69.52       67.99    
        67.11       66.94       66.72       66.50       66.28       66.08       65.90       65.75       65.63       65.55    
        65.51       65.54       65.63       65.82       66.12       66.52       67.02       67.59       68.23       68.89    
        69.57       70.25       70.90       71.53       72.13       72.68       73.20       73.68       74.15       74.63    
        75.20       75.90       76.69       77.52       78.34       79.13       79.87       80.57       81.22       81.83    
        82.40    
  24    81.60       79.45       77.65       76.05       74.59       73.22       71.93       70.69       69.46       68.15    
        67.24       66.96       66.65       66.35       66.07       65.80       65.56       65.34       65.14       64.98    
        64.85       64.78       64.79       64.90       65.15       65.54       66.06       66.68       67.35       68.05    
        68.77       69.47       70.15       70.80       71.42       72.01       72.57       73.10       73.63       74.18    
        74.78       75.45       76.18       76.93       77.69       78.42       79.13       79.81       80.44       81.03    
        81.60    
  25    80.80       78.73       77.01       75.50       74.12       72.84       71.65       70.53       69.48       68.47    
        67.57       67.03       66.58       66.19       65.84       65.51       65.20       64.91       64.63       64.37    
        64.13       63.94       63.84       63.85       64.05       64.45       65.01       65.70       66.44       67.21    
        67.97       68.71       69.43       70.11       70.75       71.37       71.96       72.53       73.10       73.68    
        74.29       74.94       75.63       76.34       77.05       77.75       78.43       79.08       79.70       80.27    
        80.80    
  26    80.00       78.31       76.75       75.31       73.97       72.72       71.55       70.46       69.43       68.48    
        67.65       66.99       66.44       65.97       65.54       65.15       64.77       64.40       64.03       63.65    
        63.27       62.91       62.62       62.47       62.58       63.02       63.71       64.53       65.40       66.26    
        67.10       67.89       68.65       69.36       70.04       70.68       71.29       71.89       72.48       73.08    
        73.69       74.33       74.99       75.66       76.34       77.01       77.66       78.30       78.90       79.48    
        80.00    
  27    79.20       77.77       76.37       75.02       73.73       72.52       71.38       70.31       69.31       68.39    
        67.56       66.84       66.21       65.67       65.19       64.74       64.29       63.84       63.36       62.85    
        62.29       61.70       61.13       60.68       60.61       61.18       62.12       63.18       64.24       65.23    
        66.16       67.03       67.83       68.57       69.27       69.93       70.57       71.18       71.79       72.39    
        73.01       73.63       74.27       74.91       75.56       76.20       76.84       77.46       78.06       78.64    
        79.20    
  28    78.40       77.21       75.93       74.66       73.43       72.25       71.14       70.09       69.11       68.21    
        67.36       66.59       65.88       65.32       64.81       64.32       63.82       63.30       62.73       62.09    
        61.35       60.49       59.50       58.52       58.00       58.98       60.41       61.84       63.13       64.28    
        65.30       66.22       67.06       67.83       68.54       69.22       69.86       70.49       71.10       71.70    
        72.31       72.92       73.54       74.16       74.79       75.41       76.03       76.64       77.23       77.82    
        78.40    
  29    77.60       76.48       75.27       74.06       72.88       71.75       70.67       69.66       68.72       67.82    
        66.97       66.13       65.41       64.91       64.41       63.91       63.38       62.81       62.18       61.44    
        60.53       59.38       57.87       55.89       53.91       56.31       58.71       60.63       62.17       63.45    
        64.54       65.50       66.35       67.13       67.86       68.54       69.18       69.80       70.41       71.01    
        71.61       72.20       72.80       73.41       74.01       74.62       75.22       75.82       76.42       77.01    
        77.60    
  30    76.80       75.60       74.40       73.23       72.09       71.01       69.99       69.03       68.13       67.27    
        66.44       65.62       64.97       64.50       64.02       63.51       62.98       62.39       61.73       60.94    
        59.96       58.65       56.70       53.26       45.44       53.65       57.48       59.81       61.48       62.81    
        63.91       64.87       65.73       66.50       67.22       67.89       68.52       69.14       69.73       70.32    
        70.90       71.48       72.07       72.65       73.24       73.83       74.42       75.02       75.61       76.21    
        76.80    
  31    76.00       74.73       73.51       72.35       71.25       70.22       69.25       68.35       67.49       66.69    
        65.91       65.14       64.55       64.11       63.65       63.15       62.62       62.05       61.40       60.64    
        59.72       58.55       57.02       55.01       53.01       55.38       57.74       59.63       61.14       62.38    
        63.43       64.36       65.18       65.93       66.62       67.27       67.89       68.48       69.06       69.63    
        70.20       70.76       71.33       71.89       72.47       73.04       73.62       74.21       74.80       75.40    
        76.00    
  32    75.20       73.80       72.56       71.41       70.35       69.37       68.45       67.61       66.81       66.07    
        65.37       64.69       64.18       63.76       63.30       62.82       62.32       61.78       61.18       60.51    
        59.73       58.83       57.80       56.77       56.20       57.11       58.49       59.85       61.07       62.14    
        63.09       63.94       64.70       65.41       66.06       66.68       67.27       67.85       68.40       68.95    
        69.50       70.04       70.58       71.13       71.69       72.25       72.81       73.39       73.99       74.59    
        75.20    
  33    74.40       73.00       71.76       70.64       69.61       68.67       67.81       67.01       66.27       65.58    
        64.94       64.37       63.88       63.43       62.98       62.52       62.05       61.56       61.04       60.48    
        59.87       59.22       58.58       58.06       57.91       58.39       59.24       60.20       61.14       62.03    
        62.85       63.60       64.29       64.94       65.54       66.12       66.68       67.22       67.75       68.28    
        68.80       69.32       69.84       70.36       70.90       71.44       72.00       72.57       73.16       73.77    
        74.40    
  34    73.60       72.31       71.11       70.03       69.04       68.14       67.31       66.55       65.85       65.20    
        64.60       64.05       63.56       63.11       62.66       62.23       61.80       61.37       60.94       60.50    
        60.05       59.62       59.24       58.99       58.99       59.31       59.87       60.56       61.28       61.99    
        62.67       63.31       63.92       64.50       65.06       65.59       66.11       66.61       67.11       67.61    
        68.10       68.59       69.09       69.59       70.10       70.62       71.16       71.72       72.31       72.94    
        73.60    
  35    72.80       71.52       70.36       69.32       68.38       67.53       66.75       66.03       65.38       64.77    
        64.20       63.68       63.21       62.76       62.34       61.94       61.55       61.19       60.84       60.52    
        60.22       59.96       59.76       59.67       59.74       59.99       60.39       60.88       61.42       61.98    
        62.53       63.06       63.59       64.09       64.59       65.07       65.54       66.01       66.47       66.93    
        67.40       67.86       68.33       68.81       69.29       69.79       70.31       70.85       71.43       72.08    
        72.80    
  36    72.00       70.62       69.49       68.50       67.63       66.84       66.12       65.46       64.85       64.29    
        63.76       63.27       62.82       62.40       62.00       61.63       61.29       60.99       60.72       60.51    
        60.35       60.24       60.18       60.20       60.31       60.52       60.80       61.16       61.55       61.97    
        62.40       62.83       63.27       63.70       64.13       64.56       64.98       65.41       65.84       66.26    
        66.69       67.13       67.57       68.01       68.47       68.94       69.42       69.93       70.49       71.14    
        72.00    
  37    71.20       69.90       68.84       67.92       67.10       66.36       65.69       65.07       64.49       63.96    
        63.46       62.99       62.56       62.15       61.76       61.41       61.10       60.83       60.62       60.47    
        60.39       60.37       60.39       60.47       60.60       60.78       61.02       61.30       61.62       61.96    
        62.32       62.69       63.08       63.46       63.86       64.25       64.65       65.05       65.45       65.86    
        66.27       66.69       67.11       67.53       67.97       68.42       68.88       69.36       69.87       70.45    
        71.20    
  38    70.40       69.36       68.42       67.57       66.80       66.10       65.45       64.86       64.30       63.79    
        63.30       62.85       62.42       62.01       61.63       61.28       60.97       60.71       60.51       60.39    
        60.36       60.37       60.41       60.50       60.63       60.82       61.04       61.31       61.61       61.94    
        62.28       62.64       63.01       63.38       63.76       64.15       64.53       64.93       65.32       65.72    
        66.12       66.53       66.94       67.36       67.79       68.23       68.67       69.13       69.60       70.05    
        70.40    
  39    69.60       68.73       67.90       67.14       66.43       65.77       65.17       64.60       64.08       63.58    
        63.12       62.67       62.25       61.85       61.47       61.12       60.80       60.53       60.33       60.23    
        60.24       60.28       60.36       60.47       60.61       60.80       61.02       61.27       61.55       61.85    
        62.16       62.50       62.84       63.19       63.55       63.91       64.28       64.65       65.03       65.41    
        65.80       66.19       66.58       66.98       67.39       67.80       68.21       68.63       69.03       69.39    
        69.60    
  40    68.80       68.05       67.33       66.65       66.00       65.40       64.84       64.31       63.82       63.35    
        62.90       62.48       62.07       61.67       61.29       60.92       60.57       60.27       60.05       59.97    
        60.00       60.11       60.24       60.38       60.55       60.73       60.94       61.17       61.42       61.69    
        61.97       62.27       62.58       62.89       63.21       63.54       63.88       64.23       64.58       64.93    
        65.29       65.66       66.02       66.39       66.76       67.13       67.50       67.87       68.22       68.53    
        68.80    
  41    68.00       67.35       66.72       66.12       65.54       64.99       64.48       63.99       63.53       63.09    
        62.67       62.27       61.87       61.48       61.09       60.70       60.30       59.92       59.63       59.60    
        59.72       59.91       60.10       60.28       60.46       60.65       60.85       61.06       61.28       61.52    
        61.77       62.03       62.30       62.58       62.87       63.17       63.48       63.79       64.12       64.45    
        64.78       65.12       65.46       65.79       66.13       66.46       66.80       67.12       67.43       67.73    
        68.00    
  42    67.20       66.64       66.09       65.55       65.04       64.55       64.09       63.64       63.22       62.82    
        62.43       62.04       61.67       61.29       60.90       60.48       60.01       59.48       58.96       59.13    
        59.41       59.73       59.97       60.18       60.37       60.55       60.74       60.93       61.13       61.34    
        61.56       61.78       62.02       62.27       62.52       62.79       63.06       63.35       63.66       63.97    
        64.27       64.58       64.89       65.20       65.50       65.80       66.10       66.39       66.67       66.94    
        67.20    
  43    66.40       65.92       65.44       64.97       64.52       64.09       63.67       63.28       62.90       62.53    
        62.17       61.82       61.47       61.11       60.73       60.31       59.79       59.04       57.59       58.67    
        59.19       59.61       59.88       60.10       60.28       60.45       60.62       60.79       60.96       61.14    
        61.33       61.53       61.73       61.94       62.16       62.39       62.64       62.90       63.19       63.48    
        63.77       64.05       64.33       64.60       64.87       65.14       65.41       65.66       65.91       66.16    
        66.40    
  44    65.60       65.19       64.78       64.37       63.98       63.61       63.24       62.89       62.56       62.23    
        61.91       61.59       61.27       60.95       60.60       60.23       59.80       59.30       58.81       59.00    
        59.31       59.62       59.85       60.04       60.20       60.36       60.50       60.65       60.79       60.95    
        61.10       61.26       61.43       61.61       61.79       61.98       62.19       62.42       62.72       63.00    
        63.26       63.52       63.77       64.01       64.25       64.49       64.72       64.94       65.17       65.38    
        65.60    
  45    64.80       64.45       64.11       63.77       63.43       63.11       62.80       62.50       62.21       61.92    
        61.64       61.36       61.09       60.80       60.51       60.20       59.88       59.57       59.33       59.35    
        59.51       59.70       59.87       60.02       60.15       60.28       60.41       60.53       60.66       60.78    
        60.91       61.05       61.19       61.33       61.48       61.64       61.81       62.00       62.26       62.52    
        62.77       62.99       63.21       63.43       63.63       63.84       64.04       64.23       64.42       64.61    
        64.80    
  46    64.00       63.71       63.43       63.15       62.87       62.61       62.35       62.09       61.85       61.61    
        61.37       61.14       60.91       60.67       60.43       60.19       59.96       59.75       59.61       59.59    
        59.66       59.77       59.89       60.01       60.13       60.23       60.34       60.44       60.55       60.66    
        60.77       60.88       61.00       61.12       61.25       61.38       61.52       61.66       61.86       62.08    
        62.29       62.48       62.67       62.85       63.02       63.19       63.36       63.52       63.68       63.84    
        64.00    
  47    63.20       62.97       62.75       62.52       62.31       62.09       61.88       61.68       61.48       61.29    
        61.10       60.91       60.73       60.54       60.36       60.18       60.01       59.87       59.77       59.74    
        59.77       59.84       59.93       60.01       60.10       60.19       60.27       60.36       60.44       60.53    
        60.62       60.71       60.80       60.90       61.00       61.11       61.22       61.33       61.47       61.65    
        61.82       61.97       62.12       62.27       62.41       62.55       62.68       62.81       62.94       63.07    
        63.20    
  48    62.40       62.23       62.06       61.90       61.73       61.57       61.42       61.27       61.12       60.97    
        60.83       60.69       60.55       60.41       60.28       60.15       60.03       59.94       59.87       59.85    
        59.86       59.90       59.95       60.01       60.08       60.14       60.20       60.27       60.33       60.40    
        60.46       60.53       60.60       60.68       60.75       60.83       60.91       60.99       61.10       61.23    
        61.36       61.47       61.59       61.70       61.80       61.91       62.01       62.11       62.21       62.30    
        62.40    
  49    61.60       61.49       61.38       61.27       61.16       61.05       60.95       60.85       60.75       60.65    
        60.55       60.46       60.37       60.28       60.19       60.11       60.03       59.97       59.93       59.92    
        59.92       59.94       59.97       60.01       60.05       60.09       60.14       60.18       60.22       60.27    
        60.31       60.36       60.40       60.45       60.50       60.56       60.61       60.66       60.73       60.82    
        60.90       60.98       61.06       61.13       61.20       61.27       61.34       61.41       61.47       61.54    
        61.60    
  50    60.80       60.74       60.69       60.63       60.58       60.53       60.47       60.42       60.37       60.33    
        60.28       60.23       60.18       60.14       60.10       60.06       60.02       59.99       59.97       59.96    
        59.96       59.97       59.99       60.01       60.03       60.05       60.07       60.09       60.11       60.13    
        60.16       60.18       60.20       60.23       60.25       60.28       60.30       60.33       60.37       60.41    
        60.45       60.49       60.53       60.56       60.60       60.64       60.67       60.70       60.74       60.77    
        60.80    
  51    60.00       60.00       60.00       60.00       60.00       60.00       60.00       60.00       60.00       60.00    
        60.00       60.00       60.00       60.00       60.00       60.00       60.00       60.00       60.00       60.00    
        60.00       60.00       60.00       60.00       60.00       60.00       60.00       60.00       60.00       60.00    
        60.00       60.00       60.00       60.00       60.00       60.00       60.00       60.00       60.00       60.00    
        60.00       60.00       60.00       60.00       60.00       60.00       60.00       60.00       60.00       60.00    
        60.00    

 HEAD WILL BE SAVED ON UNIT   51 AT END OF TIME STEP   1, STRESS PERIOD    1
1
  VOLUMETRIC BUDGET FOR ENTIRE MODEL AT END OF TIME STEP  1 IN STRESS PERIOD   1
  ------------------------------------------------------------------------------

     CUMULATIVE VOLUMES      L**3       RATES FOR THIS TIME STEP      L**3/T
     ------------------                 ------------------------

           IN:                                      IN:
           ---                                      ---
             STORAGE =           0.0000               STORAGE =           0.0000
       CONSTANT HEAD =   140098480.0000         CONSTANT HEAD =      383621.2190
               WELLS =           0.0000                 WELLS =           0.0000

            TOTAL IN =   140098480.0000              TOTAL IN =      383621.2190

          OUT:                                     OUT:
          ----                                     ----
             STORAGE =           0.0000               STORAGE =           0.0000
       CONSTANT HEAD =    41677068.0000         CONSTANT HEAD =      114121.2110
               WELLS =    98421400.0000                 WELLS =      269500.0000

           TOTAL OUT =   140098464.0000             TOTAL OUT =      383621.2190

            IN - OUT =          12.0000              IN - OUT =       7.8125E-03

 PERCENT DISCREPANCY =           0.00     PERCENT DISCREPANCY =           0.00






          TIME SUMMARY AT END OF TIME STEP   1 IN STRESS PERIOD    1
                    SECONDS     MINUTES      HOURS       DAYS        YEARS
                    -----------------------------------------------------------
   TIME STEP LENGTH 3.15533E+07 5.25888E+05  8764.8      365.20     0.99986    
 STRESS PERIOD TIME 3.15533E+07 5.25888E+05  8764.8      365.20     0.99986    
         TOTAL TIME 3.15533E+07 5.25888E+05  8764.8      365.20     0.99986    
1
1
                            STRESS PERIOD NO.    2, LENGTH =   365.2000    
                            -----------------------------------------------

                              NUMBER OF TIME STEPS =     1

                               MULTIPLIER FOR DELT =     1.000

                            INITIAL TIME STEP SIZE =   365.2000    

 WELL NO.  LAYER   ROW   COL   STRESS RATE         
 --------------------------------------------------
      1      1     11     16     -0.3850E+05
      2      1     19     41     -0.7700E+05
      3      1     30     25     -0.9625E+05
      4      1     43     19     -0.5775E+05

      4 WELLS
 
 SOLVING FOR HEAD 

 OUTPUT CONTROL FOR STRESS PERIOD    2   TIME STEP   1
    PRINT HEAD FOR ALL LAYERS
    PRINT BUDGET
    SAVE HEAD FOR ALL LAYERS
    SAVE BUDGET
 UBDSV2 SAVING "   CONSTANT HEAD" ON UNIT  53 AT TIME STEP  1, STRESS PERIOD   2
 UBDSV1 SAVING "FLOW RIGHT FACE " ON UNIT  53 AT TIME STEP  1, STRESS PERIOD   2
 UBDSV1 SAVING "FLOW FRONT FACE " ON UNIT  53 AT TIME STEP  1, STRESS PERIOD   2
 UBDSV4 SAVING "           WELLS" ON UNIT  53 AT TIME STEP  1, STRESS PERIOD   2
1
              HEAD IN LAYER   1 AT END OF TIME STEP   1 IN STRESS PERIOD    2
  ---------------------------------------------------------------------------

            1           2           3           4           5           6           7           8           9          10
           11          12          13          14          15          16          17          18          19          20
           21          22          23          24          25          26          27          28          29          30
           31          32          33          34          35          36          37          38          39          40
           41          42          43          44          45          46          47          48          49          50
           51
 ........................................................................................................................
   1    100.0       100.0       100.0       100.0       100.0       100.0       100.0       100.0       100.0       100.0    
        100.0       100.0       100.0       100.0       100.0       100.0       100.0       100.0       100.0       100.0    
        100.0       100.0       100.0       100.0       100.0       100.0       100.0       100.0       100.0       100.0    
        100.0       100.0       100.0       100.0       100.0       100.0       100.0       100.0       100.0       100.0    
        100.0       100.0       100.0       100.0       100.0       100.0       100.0       100.0       100.0       100.0    
        100.0    
   2    99.20       98.99       98.77       98.56       98.33       98.10       97.86       97.60       97.34       97.08    
        96.91       96.86       96.82       96.79       96.78       96.80       96.84       96.92       97.01       97.13    
        97.25       97.37       97.50       97.62       97.74       97.85       97.97       98.08       98.19       98.30    
        98.42       98.53       98.60       98.63       98.66       98.69       98.72       98.75       98.78       98.81    
        98.84       98.87       98.90       98.93       98.97       99.01       99.04       99.08       99.12       99.16    
        99.20    
   3    98.40       97.98       97.55       97.12       96.67       96.21       95.72       95.22       94.69       94.15    
        93.82       93.72       93.62       93.56       93.53       93.57       93.66       93.81       94.01       94.24    
        94.49       94.74       94.99       95.24       95.48       95.71       95.93       96.16       96.38       96.60    
        96.83       97.06       97.20       97.25       97.31       97.38       97.45       97.50       97.56       97.61    
        97.67       97.73       97.80       97.87       97.94       98.01       98.09       98.16       98.24       98.32    
        98.40    
   4    97.60       96.97       96.34       95.70       95.03       94.33       93.61       92.85       92.06       91.23    
        90.73       90.56       90.40       90.28       90.23       90.27       90.42       90.66       90.98       91.34    
        91.73       92.11       92.50       92.87       93.22       93.57       93.90       94.24       94.57       94.90    
        95.24       95.58       95.80       95.88       95.96       96.06       96.16       96.25       96.33       96.41    
        96.50       96.59       96.69       96.80       96.90       97.01       97.13       97.24       97.36       97.48    
        97.60    
   5    96.80       95.98       95.14       94.29       93.41       92.49       91.53       90.52       89.45       88.33    
        87.64       87.39       87.15       86.94       86.83       86.87       87.08       87.43       87.90       88.42    
        88.96       89.49       90.01       90.51       90.98       91.44       91.88       92.32       92.75       93.19    
        93.64       94.10       94.38       94.49       94.60       94.73       94.87       94.99       95.09       95.20    
        95.32       95.45       95.58       95.72       95.87       96.02       96.17       96.32       96.48       96.64    
        96.80    
   6    96.00       94.99       93.97       92.92       91.83       90.70       89.50       88.24       86.89       85.47    
        84.57       84.22       83.84       83.51       83.29       83.30       83.59       84.10       84.76       85.47    
        86.20       86.89       87.55       88.17       88.76       89.32       89.86       90.40       90.94       91.48    
        92.04       92.60       92.96       93.09       93.24       93.40       93.57       93.72       93.85       93.99    
        94.14       94.30       94.47       94.64       94.82       95.01       95.21       95.40       95.60       95.80    
        96.00    
   7    95.20       94.01       92.81       91.58       90.30       88.96       87.55       86.04       84.41       82.67    
        81.55       81.07       80.50       79.94       79.53       79.46       79.87       80.63       81.56       82.53    
        83.46       84.33       85.13       85.87       86.56       87.21       87.85       88.48       89.11       89.75    
        90.41       91.09       91.51       91.67       91.85       92.05       92.26       92.44       92.60       92.76    
        92.95       93.14       93.34       93.56       93.78       94.01       94.24       94.48       94.72       94.96    
        95.20    
   8    94.40       93.05       91.69       90.29       88.83       87.31       85.68       83.94       82.06       80.00    
        78.65       77.99       77.16       76.24       75.43       75.14       75.80       76.99       78.33       79.61    
        80.78       81.83       82.76       83.61       84.39       85.13       85.85       86.56       87.28       88.01    
        88.77       89.56       90.05       90.24       90.45       90.68       90.93       91.15       91.33       91.53    
        91.74       91.97       92.21       92.46       92.72       92.99       93.27       93.55       93.83       94.12    
        94.40    
   9    93.60       92.11       90.60       89.05       87.44       85.75       83.94       82.00       79.87       77.53    
        75.95       75.10       73.91       72.41       70.81       69.86       71.20       73.20       75.14       76.82    
        78.24       79.44       80.49       81.42       82.27       83.07       83.85       84.63       85.42       86.24    
        87.10       88.00       88.57       88.79       89.03       89.30       89.59       89.84       90.05       90.27    
        90.52       90.78       91.06       91.36       91.66       91.97       92.29       92.62       92.94       93.27    
        93.60    
  10    92.80       91.19       89.55       87.87       86.13       84.29       82.34       80.23       77.91       75.33    
        73.57       72.54       70.97       68.69       65.54       62.28       65.93       69.48       72.21       74.28    
        75.90       77.22       78.33       79.31       80.20       81.04       81.86       82.69       83.54       84.44    
        85.39       86.41       87.05       87.30       87.59       87.90       88.22       88.51       88.75       89.00    
        89.28       89.58       89.90       90.24       90.59       90.95       91.32       91.69       92.06       92.43    
        92.80    
  11    92.00       90.28       88.54       86.76       84.91       82.96       80.89       78.66       76.21       73.49    
        71.63       70.53       68.75       65.82       60.39       47.80       60.76       66.59       69.94       72.20    
        73.87       75.20       76.31       77.28       78.17       79.02       79.86       80.72       81.61       82.58    
        83.62       84.76       85.49       85.79       86.12       86.47       86.84       87.16       87.42       87.71    
        88.02       88.36       88.73       89.11       89.51       89.92       90.33       90.75       91.17       91.58    
        92.00    
  12    91.20       89.40       87.58       85.71       83.78       81.76       79.61       77.30       74.79       72.03    
        70.19       69.19       67.68       65.47       62.38       59.12       62.72       66.16       68.76       70.69    
        72.19       73.39       74.42       75.34       76.19       77.01       77.84       78.70       79.62       80.63    
        81.76       83.04       83.89       84.24       84.63       85.03       85.44       85.79       86.08       86.39    
        86.74       87.12       87.53       87.97       88.42       88.88       89.35       89.82       90.28       90.74    
        91.20    
  13    90.40       88.54       86.66       84.74       82.75       80.68       78.49       76.15       73.62       70.89    
        69.12       68.35       67.32       65.99       64.53       63.60       64.82       66.59       68.25       69.63    
        70.79       71.77       72.65       73.45       74.23       75.00       75.80       76.63       77.54       78.56    
        79.74       81.17       82.22       82.66       83.12       83.58       84.03       84.40       84.71       85.04    
        85.42       85.84       86.31       86.81       87.32       87.85       88.37       88.88       89.39       89.90    
        90.40    
  14    89.60       87.70       85.78       83.82       81.81       79.71       77.51       75.17       72.67       69.97    
        68.24       67.77       67.25       66.67       66.13       65.92       66.37       67.15       68.00       68.81    
        69.56       70.26       70.94       71.60       72.27       72.97       73.70       74.49       75.36       76.33    
        77.48       78.99       80.45       81.05       81.61       82.13       82.61       83.00       83.31       83.65    
        84.05       84.52       85.06       85.63       86.22       86.81       87.39       87.96       88.51       89.06    
        89.60    
  15    88.80       86.88       84.94       82.97       80.95       78.85       76.67       74.36       71.90       69.23    
        67.64       67.45       67.24       67.04       66.91       66.91       67.10       67.44       67.87       68.35    
        68.85       69.37       69.92       70.49       71.09       71.73       72.42       73.16       73.98       74.89    
        75.92       77.12       78.58       79.47       80.15       80.71       81.21       81.58       81.87       82.19    
        82.61       83.14       83.77       84.44       85.11       85.78       86.42       87.04       87.64       88.22    
        88.80    
  16    88.00       86.07       84.13       82.17       80.16       78.09       75.95       73.71       71.36       68.87    
        67.51       67.37       67.22       67.10       67.03       67.06       67.20       67.45       67.78       68.16    
        68.59       69.06       69.55       70.08       70.65       71.27       71.93       72.65       73.43       74.28    
        75.22       76.23       77.28       78.12       78.80       79.36       79.84       80.17       80.40       80.65    
        81.04       81.67       82.43       83.24       84.02       84.77       85.48       86.15       86.79       87.40    
        88.00    
  17    87.20       85.28       83.35       81.40       79.42       77.40       75.32       73.17       70.94       68.63    
        67.41       67.30       67.19       67.10       67.06       67.08       67.19       67.37       67.63       67.94    
        68.30       68.71       69.15       69.64       70.17       70.76       71.39       72.07       72.81       73.60    
        74.44       75.32       76.17       76.93       77.57       78.10       78.53       78.79       78.90       78.98    
        79.23       80.06       81.06       82.05       82.97       83.80       84.57       85.29       85.95       86.59    
        87.20    
  18    86.40       84.50       82.59       80.67       78.74       76.77       74.77       72.71       70.61       68.45    
        67.32       67.22       67.13       67.06       67.02       67.03       67.10       67.23       67.42       67.67    
        67.97       68.32       68.71       69.15       69.65       70.19       70.79       71.44       72.13       72.87    
        73.64       74.41       75.17       75.85       76.45       76.94       77.32       77.49       77.43       77.15    
        76.84       78.28       79.71       80.94       81.99       82.91       83.73       84.47       85.16       85.79    
        86.40    
  19    85.60       83.72       81.84       79.96       78.08       76.18       74.26       72.31       70.32       68.30    
        67.24       67.15       67.06       66.98       66.93       66.92       66.95       67.03       67.16       67.35    
        67.59       67.88       68.22       68.62       69.07       69.58       70.14       70.76       71.42       72.11    
        72.82       73.54       74.23       74.87       75.43       75.91       76.26       76.40       76.19       75.33    
        72.70       76.51       78.56       79.99       81.14       82.11       82.96       83.72       84.40       85.03    
        85.60    
  20    84.80       82.94       81.09       79.25       77.43       75.61       73.78       71.94       70.07       68.17    
        67.17       67.07       66.98       66.88       66.80       66.75       66.74       66.77       66.85       66.97    
        67.15       67.38       67.67       68.02       68.44       68.91       69.45       70.04       70.67       71.33    
        72.01       72.69       73.34       73.95       74.51       74.99       75.38       75.63       75.58       75.28    
        74.97       76.50       78.03       79.34       80.46       81.43       82.28       83.04       83.72       84.31    
        84.80    
  21    84.00       82.15       80.32       78.53       76.78       75.05       73.32       71.59       69.84       68.06    
        67.11       67.01       66.89       66.76       66.65       66.56       66.50       66.47       66.49       66.55    
        66.66       66.83       67.06       67.37       67.74       68.19       68.70       69.27       69.88       70.53    
        71.19       71.85       72.50       73.10       73.66       74.16       74.59       74.95       75.13       75.23    
        75.51       76.48       77.63       78.75       79.77       80.69       81.52       82.26       82.93       83.52    
        84.00    
  22    83.20       81.33       79.52       77.78       76.10       74.47       72.87       71.27       69.66       67.99    
        67.08       66.96       66.80       66.63       66.47       66.33       66.21       66.13       66.08       66.07    
        66.12       66.22       66.39       66.64       66.97       67.39       67.89       68.46       69.07       69.72    
        70.38       71.04       71.68       72.30       72.87       73.39       73.87       74.28       74.64       75.00    
        75.49       76.26       77.18       78.12       79.03       79.88       80.66       81.39       82.05       82.65    
        83.20    
  23    82.40       80.46       78.65       76.96       75.38       73.87       72.41       70.97       69.52       67.99    
        67.11       66.94       66.72       66.50       66.28       66.08       65.90       65.75       65.63       65.55    
        65.51       65.54       65.63       65.82       66.12       66.52       67.02       67.59       68.23       68.89    
        69.57       70.25       70.90       71.53       72.13       72.68       73.20       73.68       74.15       74.63    
        75.20       75.90       76.69       77.52       78.34       79.13       79.87       80.57       81.22       81.83    
        82.40    
  24    81.60       79.45       77.65       76.05       74.59       73.22       71.93       70.69       69.46       68.15    
        67.24       66.96       66.65       66.35       66.07       65.80       65.56       65.34       65.14       64.98    
        64.85       64.78       64.79       64.90       65.15       65.54       66.06       66.68       67.35       68.05    
        68.77       69.47       70.15       70.80       71.42       72.01       72.57       73.10       73.63       74.18    
        74.78       75.45       76.18       76.93       77.69       78.42       79.13       79.81       80.44       81.03    
        81.60    
  25    80.80       78.73       77.01       75.50       74.12       72.84       71.65       70.53       69.48       68.47    
        67.57       67.03       66.58       66.19       65.84       65.51       65.20       64.91       64.63       64.37    
        64.13       63.94       63.84       63.85       64.05       64.45       65.01       65.70       66.44       67.21    
        67.97       68.71       69.43       70.11       70.75       71.37       71.96       72.53       73.10       73.68    
        74.29       74.94       75.63       76.34       77.05       77.75       78.43       79.08       79.70       80.27    
        80.80    
  26    80.00       78.31       76.75       75.31       73.97       72.72       71.55       70.46       69.43       68.48    
        67.65       66.99       66.44       65.97       65.54       65.15       64.77       64.40       64.03       63.65    
        63.27       62.91       62.62       62.47       62.58       63.02       63.71       64.53       65.40       66.26    
        67.10       67.89       68.65       69.36       70.04       70.68       71.29       71.89       72.48       73.08    
        73.69       74.33       74.99       75.66       76.34       77.01       77.66       78.30       78.90       79.48    
        80.00    
  27    79.20       77.77       76.37       75.02       73.73       72.52       71.38       70.31       69.31       68.39    
        67.56       66.84       66.21       65.67       65.19       64.74       64.29       63.84       63.36       62.85    
        62.29       61.70       61.13       60.68       60.61       61.18       62.12       63.18       64.24       65.23    
        66.16       67.03       67.83       68.57       69.27       69.93       70.57       71.18       71.79       72.39    
        73.01       73.63       74.27       74.91       75.56       76.20       76.84       77.46       78.06       78.64    
        79.20    
  28    78.40       77.21       75.93       74.66       73.43       72.25       71.14       70.09       69.11       68.21    
        67.36       66.59       65.88       65.32       64.81       64.32       63.82       63.30       62.73       62.09    
        61.35       60.49       59.50       58.52       58.00       58.98       60.41       61.84       63.13       64.28    
        65.30       66.22       67.06       67.83       68.54       69.22       69.86       70.49       71.10       71.70    
        72.31       72.92       73.54       74.16       74.79       75.41       76.03       76.64       77.23       77.82    
        78.40    
  29    77.60       76.48       75.27       74.06       72.88       71.75       70.67       69.66       68.72       67.82    
        66.97       66.13       65.41       64.91       64.41       63.91       63.38       62.81       62.18       61.44    
        60.53       59.38       57.87       55.89       53.91       56.31       58.71       60.63       62.17       63.45    
        64.54       65.50       66.35       67.13       67.86       68.54       69.18       69.80       70.41       71.01    
        71.61       72.20       72.80       73.41       74.01       74.62       75.22       75.82       76.42       77.01    
        77.60    
  30    76.80       75.60       74.40       73.23       72.09       71.01       69.99       69.03       68.13       67.27    
        66.44       65.62       64.97       64.50       64.02       63.51       62.98       62.39       61.73       60.94    
        59.96       58.65       56.70       53.26       45.44       53.65       57.48       59.81       61.48       62.81    
        63.91       64.87       65.73       66.50       67.22       67.89       68.52       69.14       69.73       70.32    
        70.90       71.48       72.07       72.65       73.24       73.83       74.42       75.02       75.61       76.21    
        76.80    
  31    76.00       74.73       73.51       72.35       71.25       70.22       69.25       68.35       67.49       66.69    
        65.91       65.14       64.55       64.11       63.65       63.15       62.62       62.05       61.40       60.64    
        59.72       58.55       57.02       55.01       53.01       55.38       57.74       59.63       61.14       62.38    
        63.43       64.36       65.18       65.93       66.62       67.27       67.89       68.48       69.06       69.63    
        70.20       70.76       71.33       71.89       72.47       73.04       73.62       74.21       74.80       75.40    
        76.00    
  32    75.20       73.80       72.56       71.41       70.35       69.37       68.45       67.61       66.81       66.07    
        65.37       64.69       64.18       63.76       63.30       62.82       62.32       61.78       61.18       60.51    
        59.73       58.83       57.80       56.77       56.20       57.11       58.49       59.85       61.07       62.14    
        63.09       63.94       64.70       65.41       66.06       66.68       67.27       67.85       68.40       68.95    
        69.50       70.04       70.58       71.13       71.69       72.25       72.81       73.39       73.99       74.59    
        75.20    
  33    74.40       73.00       71.76       70.64       69.61       68.67       67.81       67.01       66.27       65.58    
        64.94       64.37       63.88       63.43       62.98       62.52       62.05       61.56       61.04       60.48    
        59.87       59.22       58.58       58.06       57.91       58.39       59.24       60.20       61.14       62.03    
        62.85       63.60       64.29       64.94       65.54       66.12       66.68       67.22       67.75       68.28    
        68.80       69.32       69.84       70.36       70.90       71.44       72.00       72.57       73.16       73.77    
        74.40    
  34    73.60       72.31       71.11       70.03       69.04       68.14       67.31       66.55       65.85       65.20    
        64.60       64.05       63.56       63.11       62.66       62.23       61.80       61.37       60.94       60.50    
        60.05       59.62       59.24       58.99       58.99       59.31       59.87       60.56       61.28       61.99    
        62.67       63.31       63.92       64.50       65.06       65.59       66.11       66.61       67.11       67.61    
        68.10       68.59       69.09       69.59       70.10       70.62       71.16       71.72       72.31       72.94    
        73.60    
  35    72.80       71.52       70.36       69.32       68.38       67.53       66.75       66.03       65.38       64.77    
        64.20       63.68       63.21       62.76       62.34       61.94       61.55       61.19       60.84       60.52    
        60.22       59.96       59.76       59.67       59.74       59.99       60.39       60.88       61.42       61.98    
        62.53       63.06       63.59       64.09       64.59       65.07       65.54       66.01       66.47       66.93    
        67.40       67.86       68.33       68.81       69.29       69.79       70.31       70.85       71.43       72.08    
        72.80    
  36    72.00       70.62       69.49       68.50       67.63       66.84       66.12       65.46       64.85       64.29    
        63.76       63.27       62.82       62.40       62.00       61.63       61.29       60.99       60.72       60.51    
        60.35       60.24       60.18       60.20       60.31       60.52       60.80       61.16       61.55       61.97    
        62.40       62.83       63.27       63.70       64.13       64.56       64.98       65.41       65.84       66.26    
        66.69       67.13       67.57       68.01       68.47       68.94       69.42       69.93       70.49       71.14    
        72.00    
  37    71.20       69.90       68.84       67.92       67.10       66.36       65.69       65.07       64.49       63.96    
        63.46       62.99       62.56       62.15       61.76       61.41       61.10       60.83       60.62       60.47    
        60.39       60.37       60.39       60.47       60.60       60.78       61.02       61.30       61.62       61.96    
        62.32       62.69       63.08       63.46       63.86       64.25       64.65       65.05       65.45       65.86    
        66.27       66.69       67.11       67.53       67.97       68.42       68.88       69.36       69.87       70.45    
        71.20    
  38    70.40       69.36       68.42       67.57       66.80       66.10       65.45       64.86       64.30       63.79    
        63.30       62.85       62.42       62.01       61.63       61.28       60.97       60.71       60.51       60.39    
        60.36       60.37       60.41       60.50       60.63       60.82       61.04       61.31       61.61       61.94    
        62.28       62.64       63.01       63.38       63.76       64.15       64.53       64.93       65.32       65.72    
        66.12       66.53       66.94       67.36       67.79       68.23       68.67       69.13       69.60       70.05    
        70.40    
  39    69.60       68.73       67.90       67.14       66.43       65.77       65.17       64.60       64.08       63.58    
        63.12       62.67       62.25       61.85       61.47       61.12       60.80       60.53       60.33       60.23    
        60.24       60.28       60.36       60.47       60.61       60.80       61.02       61.27       61.55       61.85    
        62.16       62.50       62.84       63.19       63.55       63.91       64.28       64.65       65.03       65.41    
        65.80       66.19       66.58       66.98       67.39       67.80       68.21       68.63       69.03       69.39    
        69.60    
  40    68.80       68.05       67.33       66.65       66.00       65.40       64.84       64.31       63.82       63.35    
        62.90       62.48       62.07       61.67       61.29       60.92       60.57       60.27       60.05       59.97    
        60.00       60.11       60.24       60.38       60.55       60.73       60.94       61.17       61.42       61.69    
        61.97       62.27       62.58       62.89       63.21       63.54       63.88       64.23       64.58       64.93    
        65.29       65.66       66.02       66.39       66.76       67.13       67.50       67.87       68.22       68.53    
        68.80    
  41    68.00       67.35       66.72       66.12       65.54       64.99       64.48       63.99       63.53       63.09    
        62.67       62.27       61.87       61.48       61.09       60.70       60.30       59.92       59.63       59.60    
        59.72       59.91       60.10       60.28       60.46       60.65       60.85       61.06       61.28       61.52    
        61.77       62.03       62.30       62.58       62.87       63.17       63.48       63.79       64.12       64.45    
        64.78       65.12       65.46       65.79       66.13       66.46       66.80       67.12       67.43       67.73    
        68.00    
  42    67.20       66.64       66.09       65.55       65.04       64.55       64.09       63.64       63.22       62.82    
        62.43       62.04       61.67       61.29       60.90       60.48       60.01       59.48       58.96       59.13    
        59.41       59.73       59.97       60.18       60.37       60.55       60.74       60.93       61.13       61.34    
        61.56       61.78       62.02       62.27       62.52       62.79       63.06       63.35       63.66       63.97    
        64.27       64.58       64.89       65.20       65.50       65.80       66.10       66.39       66.67       66.94    
        67.20    
  43    66.40       65.92       65.44       64.97       64.52       64.09       63.67       63.28       62.90       62.53    
        62.17       61.82       61.47       61.11       60.73       60.31       59.79       59.04       57.59       58.67    
        59.19       59.61       59.88       60.10       60.28       60.45       60.62       60.79       60.96       61.14    
        61.33       61.53       61.73       61.94       62.16       62.39       62.64       62.90       63.19       63.48    
        63.77       64.05       64.33       64.60       64.87       65.14       65.41       65.66       65.91       66.16    
        66.40    
  44    65.60       65.19       64.78       64.37       63.98       63.61       63.24       62.89       62.56       62.23    
        61.91       61.59       61.27       60.95       60.60       60.23       59.80       59.30       58.81       59.00    
        59.31       59.62       59.85       60.04       60.20       60.36       60.50       60.65       60.79       60.95    
        61.10       61.26       61.43       61.61       61.79       61.98       62.19       62.42       62.72       63.00    
        63.26       63.52       63.77       64.01       64.25       64.49       64.72       64.94       65.17       65.38    
        65.60    
  45    64.80       64.45       64.11       63.77       63.43       63.11       62.80       62.50       62.21       61.92    
        61.64       61.36       61.09       60.80       60.51       60.20       59.88       59.57       59.33       59.35    
        59.51       59.70       59.87       60.02       60.15       60.28       60.41       60.53       60.66       60.78    
        60.91       61.05       61.19       61.33       61.48       61.64       61.81       62.00       62.26       62.52    
        62.77       62.99       63.21       63.43       63.63       63.84       64.04       64.23       64.42       64.61    
        64.80    
  46    64.00       63.71       63.43       63.15       62.87       62.61       62.35       62.09       61.85       61.61    
        61.37       61.14       60.91       60.67       60.43       60.19       59.96       59.75       59.61       59.59    
        59.66       59.77       59.89       60.01       60.13       60.23       60.34       60.44       60.55       60.66    
        60.77       60.88       61.00       61.12       61.25       61.38       61.52       61.66       61.86       62.08    
        62.29       62.48       62.67       62.85       63.02       63.19       63.36       63.52       63.68       63.84    
        64.00    
  47    63.20       62.97       62.75       62.52       62.31       62.09       61.88       61.68       61.48       61.29    
        61.10       60.91       60.73       60.54       60.36       60.18       60.01       59.87       59.77       59.74    
        59.77       59.84       59.93       60.01       60.10       60.19       60.27       60.36       60.44       60.53    
        60.62       60.71       60.80       60.90       61.00       61.11       61.22       61.33       61.47       61.65    
        61.82       61.97       62.12       62.27       62.41       62.55       62.68       62.81       62.94       63.07    
        63.20    
  48    62.40       62.23       62.06       61.90       61.73       61.57       61.42       61.27       61.12       60.97    
        60.83       60.69       60.55       60.41       60.28       60.15       60.03       59.94       59.87       59.85    
        59.86       59.90       59.95       60.01       60.08       60.14       60.20       60.27       60.33       60.40    
        60.46       60.53       60.60       60.68       60.75       60.83       60.91       60.99       61.10       61.23    
        61.36       61.47       61.59       61.70       61.80       61.91       62.01       62.11       62.21       62.30    
        62.40    
  49    61.60       61.49       61.38       61.27       61.16       61.05       60.95       60.85       60.75       60.65    
        60.55       60.46       60.37       60.28       60.19       60.11       60.03       59.97       59.93       59.92    
        59.92       59.94       59.97       60.01       60.05       60.09       60.14       60.18       60.22       60.27    
        60.31       60.36       60.40       60.45       60.50       60.56       60.61       60.66       60.73       60.82    
        60.90       60.98       61.06       61.13       61.20       61.27       61.34       61.41       61.47       61.54    
        61.60    
  50    60.80       60.74       60.69       60.63       60.58       60.53       60.47       60.42       60.37       60.33    
        60.28       60.23       60.18       60.14       60.10       60.06       60.02       59.99       59.97       59.96    
        59.96       59.97       59.99       60.01       60.03       60.05       60.07       60.09       60.11       60.13    
        60.16       60.18       60.20       60.23       60.25       60.28       60.30       60.33       60.37       60.41    
        60.45       60.49       60.53       60.56       60.60       60.64       60.67       60.70       60.74       60.77    
        60.80    
  51    60.00       60.00       60.00       60.00       60.00       60.00       60.00       60.00       60.00       60.00    
        60.00       60.00       60.00       60.00       60.00       60.00       60.00       60.00       60.00       60.00    
        60.00       60.00       60.00       60.00       60.00       60.00       60.00       60.00       60.00       60.00    
        60.00       60.00       60.00       60.00       60.00       60.00       60.00       60.00       60.00       60.00    
        60.00       60.00       60.00       60.00       60.00       60.00       60.00       60.00       60.00       60.00    
        60.00    

 HEAD WILL BE SAVED ON UNIT   51 AT END OF TIME STEP   1, STRESS PERIOD    2
1
  VOLUMETRIC BUDGET FOR ENTIRE MODEL AT END OF TIME STEP  1 IN STRESS PERIOD   2
  ------------------------------------------------------------------------------

     CUMULATIVE VOLUMES      L**3       RATES FOR THIS TIME STEP      L**3/T
     ------------------                 ------------------------

           IN:                                      IN:
           ---                                      ---
             STORAGE =           0.0000               STORAGE =           0.0000
       CONSTANT HEAD =   280196960.0000         CONSTANT HEAD =      383621.2190
               WELLS =           0.0000                 WELLS =           0.0000

            TOTAL IN =   280196960.0000              TOTAL IN =      383621.2190

          OUT:                                     OUT:
          ----                                     ----
             STORAGE =           0.0000               STORAGE =           0.0000
       CONSTANT HEAD =    83354136.0000         CONSTANT HEAD =      114121.2110
               WELLS =   196842800.0000                 WELLS =      269500.0000

           TOTAL OUT =   280196928.0000             TOTAL OUT =      383621.2190

            IN - OUT =          24.0000              IN - OUT =       7.8125E-03

 PERCENT DISCREPANCY =           0.00     PERCENT DISCREPANCY =           0.00






          TIME SUMMARY AT END OF TIME STEP   1 IN STRESS PERIOD    2
                    SECONDS     MINUTES      HOURS       DAYS        YEARS
                    -----------------------------------------------------------
   TIME STEP LENGTH 3.15533E+07 5.25888E+05  8764.8      365.20     0.99986    
 STRESS PERIOD TIME 3.15533E+07 5.25888E+05  8764.8      365.20     0.99986    
         TOTAL TIME 6.31066E+07 1.05178E+06  17530.      730.40      1.9997    
1
1
                            STRESS PERIOD NO.    3, LENGTH =   365.2000    
                            -----------------------------------------------

                              NUMBER OF TIME STEPS =     1

                               MULTIPLIER FOR DELT =     1.000

                            INITIAL TIME STEP SIZE =   365.2000    

 WELL NO.  LAYER   ROW   COL   STRESS RATE         
 --------------------------------------------------
      1      1     11     16     -0.3850E+05
      2      1     19     41     -0.7700E+05
      3      1     30     25     -0.9625E+05
      4      1     43     19     -0.5775E+05

      4 WELLS
 
 SOLVING FOR HEAD 

 OUTPUT CONTROL FOR STRESS PERIOD    3   TIME STEP   1
    PRINT HEAD FOR ALL LAYERS
    PRINT BUDGET
    SAVE HEAD FOR ALL LAYERS
    SAVE BUDGET
 UBDSV2 SAVING "   CONSTANT HEAD" ON UNIT  53 AT TIME STEP  1, STRESS PERIOD   3
 UBDSV1 SAVING "FLOW RIGHT FACE " ON UNIT  53 AT TIME STEP  1, STRESS PERIOD   3
 UBDSV1 SAVING "FLOW FRONT FACE " ON UNIT  53 AT TIME STEP  1, STRESS PERIOD   3
 UBDSV4 SAVING "           WELLS" ON UNIT  53 AT TIME STEP  1, STRESS PERIOD   3
1
              HEAD IN LAYER   1 AT END OF TIME STEP   1 IN STRESS PERIOD    3
  ---------------------------------------------------------------------------

            1           2           3           4           5           6           7           8           9          10
           11          12          13          14          15          16          17          18          19          20
           21          22          23          24          25          26          27          28          29          30
           31          32          33          34          35          36          37          38          39          40
           41          42          43          44          45          46          47          48          49          50
           51
 ........................................................................................................................
   1    100.0       100.0       100.0       100.0       100.0       100.0       100.0       100.0       100.0       100.0    
        100.0       100.0       100.0       100.0       100.0       100.0       100.0       100.0       100.0       100.0    
        100.0       100.0       100.0       100.0       100.0       100.0       100.0       100.0       100.0       100.0    
        100.0       100.0       100.0       100.0       100.0       100.0       100.0       100.0       100.0       100.0    
        100.0       100.0       100.0       100.0       100.0       100.0       100.0       100.0       100.0       100.0    
        100.0    
   2    99.20       98.99       98.77       98.56       98.33       98.10       97.86       97.60       97.34       97.08    
        96.91       96.86       96.82       96.79       96.78       96.80       96.84       96.92       97.01       97.13    
        97.25       97.37       97.50       97.62       97.74       97.85       97.97       98.08       98.19       98.30    
        98.42       98.53       98.60       98.63       98.66       98.69       98.72       98.75       98.78       98.81    
        98.84       98.87       98.90       98.93       98.97       99.01       99.04       99.08       99.12       99.16    
        99.20    
   3    98.40       97.98       97.55       97.12       96.67       96.21       95.72       95.22       94.69       94.15    
        93.82       93.72       93.62       93.56       93.53       93.57       93.66       93.81       94.01       94.24    
        94.49       94.74       94.99       95.24       95.48       95.71       95.93       96.16       96.38       96.60    
        96.83       97.06       97.20       97.25       97.31       97.38       97.45       97.50       97.56       97.61    
        97.67       97.73       97.80       97.87       97.94       98.01       98.09       98.16       98.24       98.32    
        98.40    
   4    97.60       96.97       96.34       95.70       95.03       94.33       93.61       92.85       92.06       91.23    
[...]
        67.57       67.03       66.58       66.19       65.84       65.51       65.20       64.91       64.63       64.37    
        64.13       63.94       63.84       63.85       64.05       64.45       65.01       65.70       66.44       67.21    
        67.97       68.71       69.43       70.11       70.75       71.37       71.96       72.53       73.10       73.68    
        74.29       74.94       75.63       76.34       77.05       77.75       78.43       79.08       79.70       80.27    
        80.80    
  26    80.00       78.31       76.75       75.31       73.97       72.72       71.55       70.46       69.43       68.48    
        67.65       66.99       66.44       65.97       65.54       65.15       64.77       64.40       64.03       63.65    
        63.27       62.91       62.62       62.47       62.58       63.02       63.71       64.53       65.40       66.26    
        67.10       67.89       68.65       69.36       70.04       70.68       71.29       71.89       72.48       73.08    
        73.69       74.33       74.99       75.66       76.34       77.01       77.66       78.30       78.90       79.48    
        80.00    
  27    79.20       77.77       76.37       75.02       73.73       72.52       71.38       70.31       69.31       68.39    
        67.56       66.84       66.21       65.67       65.19       64.74       64.29       63.84       63.36       62.85    
        62.29       61.70       61.13       60.68       60.61       61.18       62.12       63.18       64.24       65.23    
        66.16       67.03       67.83       68.57       69.27       69.93       70.57       71.18       71.79       72.39    
        73.01       73.63       74.27       74.91       75.56       76.20       76.84       77.46       78.06       78.64    
        79.20    
  28    78.40       77.21       75.93       74.66       73.43       72.25       71.14       70.09       69.11       68.21    
        67.36       66.59       65.88       65.32       64.81       64.32       63.82       63.30       62.73       62.09    
        61.35       60.49       59.50       58.52       58.00       58.98       60.41       61.84       63.13       64.28    
        65.30       66.22       67.06       67.83       68.54       69.22       69.86       70.49       71.10       71.70    
        72.31       72.92       73.54       74.16       74.79       75.41       76.03       76.64       77.23       77.82    
        78.40    
  29    77.60       76.48       75.27       74.06       72.88       71.75       70.67       69.66       68.72       67.82    
        66.97       66.13       65.41       64.91       64.41       63.91       63.38       62.81       62.18       61.44    
        60.53       59.38       57.87       55.89       53.91       56.31       58.71       60.63       62.17       63.45    
        64.54       65.50       66.35       67.13       67.86       68.54       69.18       69.80       70.41       71.01    
        71.61       72.20       72.80       73.41       74.01       74.62       75.22       75.82       76.42       77.01    
        77.60    
  30    76.80       75.60       74.40       73.23       72.09       71.01       69.99       69.03       68.13       67.27    
        66.44       65.62       64.97       64.50       64.02       63.51       62.98       62.39       61.73       60.94    
        59.96       58.65       56.70       53.26       45.44       53.65       57.48       59.81       61.48       62.81    
        63.91       64.87       65.73       66.50       67.22       67.89       68.52       69.14       69.73       70.32    
        70.90       71.48       72.07       72.65       73.24       73.83       74.42       75.02       75.61       76.21    
        76.80    
  31    76.00       74.73       73.51       72.35       71.25       70.22       69.25       68.35       67.49       66.69    
        65.91       65.14       64.55       64.11       63.65       63.15       62.62       62.05       61.40       60.64    
        59.72       58.55       57.02       55.01       53.01       55.38       57.74       59.63       61.14       62.38    
        63.43       64.36       65.18       65.93       66.62       67.27       67.89       68.48       69.06       69.63    
        70.20       70.76       71.33       71.89       72.47       73.04       73.62       74.21       74.80       75.40    
        76.00    
  32    75.20       73.80       72.56       71.41       70.35       69.37       68.45       67.61       66.81       66.07    
        65.37       64.69       64.18       63.76       63.30       62.82       62.32       61.78       61.18       60.51    
        59.73       58.83       57.80       56.77       56.20       57.11       58.49       59.85       61.07       62.14    
        63.09       63.94       64.70       65.41       66.06       66.68       67.27       67.85       68.40       68.95    
        69.50       70.04       70.58       71.13       71.69       72.25       72.81       73.39       73.99       74.59    
        75.20    
  33    74.40       73.00       71.76       70.64       69.61       68.67       67.81       67.01       66.27       65.58    
        64.94       64.37       63.88       63.43       62.98       62.52       62.05       61.56       61.04       60.48    
        59.87       59.22       58.58       58.06       57.91       58.39       59.24       60.20       61.14       62.03    
        62.85       63.60       64.29       64.94       65.54       66.12       66.68       67.22       67.75       68.28    
        68.80       69.32       69.84       70.36       70.90       71.44       72.00       72.57       73.16       73.77    
        74.40    
  34    73.60       72.31       71.11       70.03       69.04       68.14       67.31       66.55       65.85       65.20    
        64.60       64.05       63.56       63.11       62.66       62.23       61.80       61.37       60.94       60.50    
        60.05       59.62       59.24       58.99       58.99       59.31       59.87       60.56       61.28       61.99    
        62.67       63.31       63.92       64.50       65.06       65.59       66.11       66.61       67.11       67.61    
        68.10       68.59       69.09       69.59       70.10       70.62       71.16       71.72       72.31       72.94    
        73.60    
  35    72.80       71.52       70.36       69.32       68.38       67.53       66.75       66.03       65.38       64.77    
        64.20       63.68       63.21       62.76       62.34       61.94       61.55       61.19       60.84       60.52    
        60.22       59.96       59.76       59.67       59.74       59.99       60.39       60.88       61.42       61.98    
        62.53       63.06       63.59       64.09       64.59       65.07       65.54       66.01       66.47       66.93    
        67.40       67.86       68.33       68.81       69.29       69.79       70.31       70.85       71.43       72.08    
        72.80    
  36    72.00       70.62       69.49       68.50       67.63       66.84       66.12       65.46       64.85       64.29    
        63.76       63.27       62.82       62.40       62.00       61.63       61.29       60.99       60.72       60.51    
        60.35       60.24       60.18       60.20       60.31       60.52       60.80       61.16       61.55       61.97    
        62.40       62.83       63.27       63.70       64.13       64.56       64.98       65.41       65.84       66.26    
        66.69       67.13       67.57       68.01       68.47       68.94       69.42       69.93       70.49       71.14    
        72.00    
  37    71.20       69.90       68.84       67.92       67.10       66.36       65.69       65.07       64.49       63.96    
        63.46       62.99       62.56       62.15       61.76       61.41       61.10       60.83       60.62       60.47    
        60.39       60.37       60.39       60.47       60.60       60.78       61.02       61.30       61.62       61.96    
        62.32       62.69       63.08       63.46       63.86       64.25       64.65       65.05       65.45       65.86    
        66.27       66.69       67.11       67.53       67.97       68.42       68.88       69.36       69.87       70.45    
        71.20    
  38    70.40       69.36       68.42       67.57       66.80       66.10       65.45       64.86       64.30       63.79    
        63.30       62.85       62.42       62.01       61.63       61.28       60.97       60.71       60.51       60.39    
        60.36       60.37       60.41       60.50       60.63       60.82       61.04       61.31       61.61       61.94    
        62.28       62.64       63.01       63.38       63.76       64.15       64.53       64.93       65.32       65.72    
        66.12       66.53       66.94       67.36       67.79       68.23       68.67       69.13       69.60       70.05    
        70.40    
  39    69.60       68.73       67.90       67.14       66.43       65.77       65.17       64.60       64.08       63.58    
        63.12       62.67       62.25       61.85       61.47       61.12       60.80       60.53       60.33       60.23    
        60.24       60.28       60.36       60.47       60.61       60.80       61.02       61.27       61.55       61.85    
        62.16       62.50       62.84       63.19       63.55       63.91       64.28       64.65       65.03       65.41    
        65.80       66.19       66.58       66.98       67.39       67.80       68.21       68.63       69.03       69.39    
        69.60    
  40    68.80       68.05       67.33       66.65       66.00       65.40       64.84       64.31       63.82       63.35    
        62.90       62.48       62.07       61.67       61.29       60.92       60.57       60.27       60.05       59.97    
        60.00       60.11       60.24       60.38       60.55       60.73       60.94       61.17       61.42       61.69    
        61.97       62.27       62.58       62.89       63.21       63.54       63.88       64.23       64.58       64.93    
        65.29       65.66       66.02       66.39       66.76       67.13       67.50       67.87       68.22       68.53    
        68.80    
  41    68.00       67.35       66.72       66.12       65.54       64.99       64.48       63.99       63.53       63.09    
        62.67       62.27       61.87       61.48       61.09       60.70       60.30       59.92       59.63       59.60    
        59.72       59.91       60.10       60.28       60.46       60.65       60.85       61.06       61.28       61.52    
        61.77       62.03       62.30       62.58       62.87       63.17       63.48       63.79       64.12       64.45    
        64.78       65.12       65.46       65.79       66.13       66.46       66.80       67.12       67.43       67.73    
        68.00    
  42    67.20       66.64       66.09       65.55       65.04       64.55       64.09       63.64       63.22       62.82    
        62.43       62.04       61.67       61.29       60.90       60.48       60.01       59.48       58.96       59.13    
        59.41       59.73       59.97       60.18       60.37       60.55       60.74       60.93       61.13       61.34    
        61.56       61.78       62.02       62.27       62.52       62.79       63.06       63.35       63.66       63.97    
        64.27       64.58       64.89       65.20       65.50       65.80       66.10       66.39       66.67       66.94    
        67.20    
  43    66.40       65.92       65.44       64.97       64.52       64.09       63.67       63.28       62.90       62.53    
        62.17       61.82       61.47       61.11       60.73       60.31       59.79       59.04       57.59       58.67    
        59.19       59.61       59.88       60.10       60.28       60.45       60.62       60.79       60.96       61.14    
        61.33       61.53       61.73       61.94       62.16       62.39       62.64       62.90       63.19       63.48    
        63.77       64.05       64.33       64.60       64.87       65.14       65.41       65.66       65.91       66.16    
        66.40    
  44    65.60       65.19       64.78       64.37       63.98       63.61       63.24       62.89       62.56       62.23    
        61.91       61.59       61.27       60.95       60.60       60.23       59.80       59.30       58.81       59.00    
        59.31       59.62       59.85       60.04       60.20       60.36       60.50       60.65       60.79       60.95    
        61.10       61.26       61.43       61.61       61.79       61.98       62.19       62.42       62.72       63.00    
        63.26       63.52       63.77       64.01       64.25       64.49       64.72       64.94       65.17       65.38    
        65.60    
  45    64.80       64.45       64.11       63.77       63.43       63.11       62.80       62.50       62.21       61.92    
        61.64       61.36       61.09       60.80       60.51       60.20       59.88       59.57       59.33       59.35    
        59.51       59.70       59.87       60.02       60.15       60.28       60.41       60.53       60.66       60.78    
        60.91       61.05       61.19       61.33       61.48       61.64       61.81       62.00       62.26       62.52    
        62.77       62.99       63.21       63.43       63.63       63.84       64.04       64.23       64.42       64.61    
        64.80    
  46    64.00       63.71       63.43       63.15       62.87       62.61       62.35       62.09       61.85       61.61    
        61.37       61.14       60.91       60.67       60.43       60.19       59.96       59.75       59.61       59.59    
        59.66       59.77       59.89       60.01       60.13       60.23       60.34       60.44       60.55       60.66    
        60.77       60.88       61.00       61.12       61.25       61.38       61.52       61.66       61.86       62.08    
        62.29       62.48       62.67       62.85       63.02       63.19       63.36       63.52       63.68       63.84    
        64.00    
  47    63.20       62.97       62.75       62.52       62.31       62.09       61.88       61.68       61.48       61.29    
        61.10       60.91       60.73       60.54       60.36       60.18       60.01       59.87       59.77       59.74    
        59.77       59.84       59.93       60.01       60.10       60.19       60.27       60.36       60.44       60.53    
        60.62       60.71       60.80       60.90       61.00       61.11       61.22       61.33       61.47       61.65    
        61.82       61.97       62.12       62.27       62.41       62.55       62.68       62.81       62.94       63.07    
        63.20    
  48    62.40       62.23       62.06       61.90       61.73       61.57       61.42       61.27       61.12       60.97    
        60.83       60.69       60.55       60.41       60.28       60.15       60.03       59.94       59.87       59.85    
        59.86       59.90       59.95       60.01       60.08       60.14       60.20       60.27       60.33       60.40    
        60.46       60.53       60.60       60.68       60.75       60.83       60.91       60.99       61.10       61.23    
        61.36       61.47       61.59       61.70       61.80       61.91       62.01       62.11       62.21       62.30    
        62.40    
  49    61.60       61.49       61.38       61.27       61.16       61.05       60.95       60.85       60.75       60.65    
        60.55       60.46       60.37       60.28       60.19       60.11       60.03       59.97       59.93       59.92    
        59.92       59.94       59.97       60.01       60.05       60.09       60.14       60.18       60.22       60.27    
        60.31       60.36       60.40       60.45       60.50       60.56       60.61       60.66       60.73       60.82    
        60.90       60.98       61.06       61.13       61.20       61.27       61.34       61.41       61.47       61.54    
        61.60    
  50    60.80       60.74       60.69       60.63       60.58       60.53       60.47       60.42       60.37       60.33    
        60.28       60.23       60.18       60.14       60.10       60.06       60.02       59.99       59.97       59.96    
        59.96       59.97       59.99       60.01       60.03       60.05       60.07       60.09       60.11       60.13    
        60.16       60.18       60.20       60.23       60.25       60.28       60.30       60.33       60.37       60.41    
        60.45       60.49       60.53       60.56       60.60       60.64       60.67       60.70       60.74       60.77    
        60.80    
  51    60.00       60.00       60.00       60.00       60.00       60.00       60.00       60.00       60.00       60.00    
        60.00       60.00       60.00       60.00       60.00       60.00       60.00       60.00       60.00       60.00    
        60.00       60.00       60.00       60.00       60.00       60.00       60.00       60.00       60.00       60.00    
        60.00       60.00       60.00       60.00       60.00       60.00       60.00       60.00       60.00       60.00    
        60.00       60.00       60.00       60.00       60.00       60.00       60.00       60.00       60.00       60.00    
        60.00    

 HEAD WILL BE SAVED ON UNIT   51 AT END OF TIME STEP   1, STRESS PERIOD    4
1
  VOLUMETRIC BUDGET FOR ENTIRE MODEL AT END OF TIME STEP  1 IN STRESS PERIOD   4
  ------------------------------------------------------------------------------

     CUMULATIVE VOLUMES      L**3       RATES FOR THIS TIME STEP      L**3/T
     ------------------                 ------------------------

           IN:                                      IN:
           ---                                      ---
             STORAGE =           0.0000               STORAGE =           0.0000
       CONSTANT HEAD =   560393920.0000         CONSTANT HEAD =      383621.2190
               WELLS =           0.0000                 WELLS =           0.0000

            TOTAL IN =   560393920.0000              TOTAL IN =      383621.2190

          OUT:                                     OUT:
          ----                                     ----
             STORAGE =           0.0000               STORAGE =           0.0000
       CONSTANT HEAD =   166708272.0000         CONSTANT HEAD =      114121.2110
               WELLS =   393685600.0000                 WELLS =      269500.0000

           TOTAL OUT =   560393856.0000             TOTAL OUT =      383621.2190

            IN - OUT =          48.0000              IN - OUT =       7.8125E-03

 PERCENT DISCREPANCY =           0.00     PERCENT DISCREPANCY =           0.00






          TIME SUMMARY AT END OF TIME STEP   1 IN STRESS PERIOD    4
                    SECONDS     MINUTES      HOURS       DAYS        YEARS
                    -----------------------------------------------------------
   TIME STEP LENGTH 3.15533E+07 5.25888E+05  8764.8      365.20     0.99986    
 STRESS PERIOD TIME 3.15533E+07 5.25888E+05  8764.8      365.20     0.99986    
         TOTAL TIME 1.26213E+08 2.10355E+06  35059.      1460.8      3.9995    
1
1
                            STRESS PERIOD NO.    5, LENGTH =   365.2000    
                            -----------------------------------------------

                              NUMBER OF TIME STEPS =     1

                               MULTIPLIER FOR DELT =     1.000

                            INITIAL TIME STEP SIZE =   365.2000    

 WELL NO.  LAYER   ROW   COL   STRESS RATE         
 --------------------------------------------------

 FILE UNIT   20 : ERROR CONVERTING "#" TO AN INTEGER IN LINE:
          4         0 # stress period 6                                                                                                                                                                  
