                                  MODFLOW-2000
      U.S. GEOLOGICAL SURVEY MODULAR FINITE-DIFFERENCE GROUND-WATER FLOW MODEL
                    VERSION 1.19.01 03/25/2010 CHPRC Build 7


 This model run produced both GLOBAL and LIST files.  This is the LIST file.

 
 # BAS6 package for  MODFLOW-2000, generated by Flopy.                           
 THE FREE FORMAT OPTION HAS BEEN SELECTED
    1 LAYERS       200 ROWS       200 COLUMNS
   10 STRESS PERIOD(S) IN SIMULATION

 BAS6 -- BASIC PACKAGE, VERSION 6, 1/11/2000 INPUT READ FROM UNIT   13
          5 ELEMENTS IN IR ARRAY ARE USED BY BAS

 WEL6 -- WELL PACKAGE, VERSION 6, 1/11/2000 INPUT READ FROM UNIT   20
 # WEL package for  MODFLOW-2000, generated by Flopy.
 No named parameters
 MAXIMUM OF      4 ACTIVE WELLS AT ONE TIME
 CELL-BY-CELL FLOWS WILL BE SAVED ON UNIT   53
         16 ELEMENTS IN RX ARRAY ARE USED BY WEL

         16  ELEMENTS OF RX ARRAY USED OUT OF         16
          0  ELEMENTS OF RZ ARRAY USED OUT OF          1
          5  ELEMENTS OF IR ARRAY USED OUT OF          5
1
 # BAS6 package for  MODFLOW-2000, generated by Flopy.                           
                                                                                 



                     BOUNDARY ARRAY FOR LAYER   1
 READING ON UNIT   13 WITH FORMAT: (200I10)            

 AQUIFER HEAD WILL BE SET TO -999.99     AT ALL NO-FLOW NODES (IBOUND=0).



                       INITIAL HEAD FOR LAYER   1
 READING ON UNIT   13 WITH FORMAT: (200E15.6)          
 # OC package for  MODFLOW-2000, generated by Flopy.

 OUTPUT CONTROL IS SPECIFIED ONLY AT TIME STEPS FOR WHICH OUTPUT IS DESIRED
 COMPACT CELL-BY-CELL BUDGET FILES WILL BE WRITTEN
 AUXILIARY DATA WILL BE SAVED IN CELL-BY-CELL BUDGET FILES
 HEAD PRINT FORMAT CODE IS   0    DRAWDOWN PRINT FORMAT CODE IS   0
 HEADS WILL BE SAVED ON UNIT   51    DRAWDOWNS WILL BE SAVED ON UNIT    0
1
                            STRESS PERIOD NO.    1, LENGTH =   365.2000    
                            -----------------------------------------------

                              NUMBER OF TIME STEPS =     1

                               MULTIPLIER FOR DELT =     1.000

                            INITIAL TIME STEP SIZE =   365.2000    

 WELL NO.  LAYER   ROW   COL   STRESS RATE         
 --------------------------------------------------
      1      1     40     60     -0.3850E+05
      2      1     72    160     -0.7700E+05
      3      1    116     96     -0.9625E+05
      4      1    168     72     -0.5775E+05

      4 WELLS
 
 SOLVING FOR HEAD 

 OUTPUT CONTROL FOR STRESS PERIOD    1   TIME STEP   1
    PRINT HEAD FOR ALL LAYERS
    PRINT BUDGET
    SAVE HEAD FOR ALL LAYERS
    SAVE BUDGET
 UBDSV2 SAVING "   CONSTANT HEAD" ON UNIT  53 AT TIME STEP  1, STRESS PERIOD   1
 UBDSV1 SAVING "FLOW RIGHT FACE " ON UNIT  53 AT TIME STEP  1, STRESS PERIOD   1
 UBDSV1 SAVING "FLOW FRONT FACE " ON UNIT  53 AT TIME STEP  1, STRESS PERIOD   1
 UBDSV4 SAVING "           WELLS" ON UNIT  53 AT TIME STEP  1, STRESS PERIOD   1
1
              HEAD IN LAYER   1 AT END OF TIME STEP   1 IN STRESS PERIOD    1
  ---------------------------------------------------------------------------

            1           2           3           4           5           6           7           8           9          10
           11          12          13          14          15          16          17          18          19          20
           21          22          23          24          25          26          27          28          29          30
           31          32          33          34          35          36          37          38          39          40
           41          42          43          44          45          46          47          48          49          50
           51          52          53          54          55          56          57          58          59          60
           61          62          63          64          65          66          67          68          69          70
           71          72          73          74          75          76          77          78          79          80
           81          82          83          84          85          86          87          88          89          90
           91          92          93          94          95          96          97          98          99         100
          101         102         103         104         105         106         107         108         109         110
          111         112         113         114         115         116         117         118         119         120
          121         122         123         124         125         126         127         128         129         130
          131         132         133         134         135         136         137         138         139         140
          141         142         143         144         145         146         147         148         149         150
          151         152         153         154         155         156         157         158         159         160
          161         162         163         164         165         166         167         168         169         170
          171         172         173         174         175         176         177         178         179         180
          181         182         183         184         185         186         187         188         189         190
          191         192         193         194         195         196         197         198         199         200
 ........................................................................................................................
   1    100.0       100.0       100.0       100.0       100.0       100.0       100.0       100.0       100.0       100.0    
        100.0       100.0       100.0       100.0       100.0       100.0       100.0       100.0       100.0       100.0    
        100.0       100.0       100.0       100.0       100.0       100.0       100.0       100.0       100.0       100.0    
        100.0       100.0       100.0       100.0       100.0       100.0       100.0       100.0       100.0       100.0    
        100.0       100.0       100.0       100.0       100.0       100.0       100.0       100.0       100.0       100.0    
        100.0       100.0       100.0       100.0       100.0       100.0       100.0       100.0       100.0       100.0    
        100.0       100.0       100.0       100.0       100.0       100.0       100.0       100.0       100.0       100.0    
        100.0       100.0       100.0       100.0       100.0       100.0       100.0       100.0       100.0       100.0    
        100.0       100.0       100.0       100.0       100.0       100.0       100.0       100.0       100.0       100.0    
        100.0       100.0       100.0       100.0       100.0       100.0       100.0       100.0       100.0       100.0    
        100.0       100.0       100.0       100.0       100.0       100.0       100.0       100.0       100.0       100.0    
        100.0       100.0       100.0       100.0       100.0       100.0       100.0       100.0       100.0       100.0    
        100.0       100.0       100.0       100.0       100.0       100.0       100.0       100.0       100.0       100.0    
        100.0       100.0       100.0       100.0       100.0       100.0       100.0       100.0       100.0       100.0    
        100.0       100.0       100.0       100.0       100.0       100.0       100.0       100.0       100.0       100.0    
        100.0       100.0       100.0       100.0       100.0       100.0       100.0       100.0       100.0       100.0    
        100.0       100.0       100.0       100.0       100.0       100.0       100.0       100.0       100.0       100.0    
        100.0       100.0       100.0       100.0       100.0       100.0       100.0       100.0       100.0       100.0    
        100.0       100.0       100.0       100.0       100.0       100.0       100.0       100.0       100.0       100.0    
        100.0       100.0       100.0       100.0       100.0       100.0       100.0       100.0       100.0       100.0    
   2    99.80       99.79       99.77       99.76       99.75       99.73       99.72       99.71       99.69       99.68    
        99.66       99.65       99.64       99.62       99.61       99.59       99.58       99.56       99.55       99.54    
        99.52       99.51       99.49       99.47       99.46       99.44       99.43       99.41       99.39       99.38    
        99.36       99.34       99.33       99.31       99.29       99.28       99.26       99.24       99.22       99.21    
        99.19       99.17       99.16       99.16       99.16       99.15       99.15       99.15       99.15       99.15    
        99.14       99.14       99.14       99.14       99.14       99.14       99.15       99.15       99.15       99.15    
        99.15       99.16       99.16       99.17       99.17       99.18       99.18       99.19       99.19       99.20    
        99.21       99.22       99.22       99.23       99.24       99.25       99.25       99.26       99.27       99.28    
        99.29       99.30       99.31       99.31       99.32       99.33       99.34       99.35       99.36       99.36    
        99.37       99.38       99.39       99.40       99.40       99.41       99.42       99.43       99.43       99.44    
        99.45       99.46       99.46       99.47       99.48       99.49       99.49       99.50       99.51       99.51    
        99.52       99.53       99.53       99.54       99.55       99.56       99.56       99.57       99.58       99.58    
        99.59       99.60       99.60       99.61       99.62       99.63       99.63       99.64       99.65       99.65    
        99.65       99.66       99.66       99.66       99.66       99.66       99.66       99.67       99.67       99.67    
        99.67       99.67       99.68       99.68       99.68       99.68       99.68       99.68       99.69       99.69    
        99.69       99.69       99.69       99.69       99.70       99.70       99.70       99.70       99.70       99.71    
        99.71       99.71       99.71       99.71       99.72       99.72       99.72       99.72       99.72       99.73    
        99.73       99.73       99.73       99.73       99.74       99.74       99.74       99.74       99.75       99.75    
        99.75       99.75       99.76       99.76       99.76       99.76       99.77       99.77       99.77       99.77    
        99.78       99.78       99.78       99.78       99.79       99.79       99.79       99.79       99.80       99.80    
   3    99.60       99.57       99.54       99.52       99.49       99.46       99.44       99.41       99.38       99.36    
        99.33       99.30       99.27       99.25       99.22       99.19       99.16       99.13       99.10       99.07    
        99.04       99.01       98.98       98.95       98.92       98.88       98.85       98.82       98.79       98.75    
        98.72       98.69       98.65       98.62       98.58       98.55       98.52       98.48       98.45       98.41    
        98.38       98.34       98.32       98.32       98.31       98.31       98.30       98.30       98.29       98.29    
        98.29       98.29       98.29       98.29       98.29       98.29       98.29       98.29       98.30       98.30    
        98.31       98.32       98.32       98.33       98.34       98.35       98.36       98.38       98.39       98.40    
        98.42       98.43       98.45       98.46       98.48       98.49       98.51       98.53       98.54       98.56    
        98.58       98.59       98.61       98.63       98.65       98.66       98.68       98.70       98.71       98.73    
        98.74       98.76       98.78       98.79       98.81       98.82       98.84       98.85       98.87       98.88    
        98.90       98.91       98.93       98.94       98.96       98.97       98.98       99.00       99.01       99.03    
        99.04       99.05       99.07       99.08       99.10       99.11       99.12       99.14       99.15       99.17    
        99.18       99.19       99.21       99.22       99.24       99.25       99.27       99.28       99.30       99.30    
        99.31       99.31       99.31       99.32       99.32       99.32       99.33       99.33       99.34       99.34    
        99.34       99.35       99.35       99.36       99.36       99.36       99.37       99.37       99.37       99.38    
        99.38       99.38       99.39       99.39       99.39       99.40       99.40       99.40       99.41       99.41    
        99.41       99.42       99.42       99.43       99.43       99.43       99.44       99.44       99.45       99.45    
        99.46       99.46       99.47       99.47       99.47       99.48       99.48       99.49       99.49       99.50    
        99.50       99.51       99.51       99.52       99.52       99.53       99.53       99.54       99.54       99.55    
        99.55       99.56       99.56       99.57       99.57       99.58       99.58       99.59       99.59       99.60    
   4    99.40       99.36       99.32       99.28       99.24       99.20       99.16       99.12       99.08       99.03    
        98.99       98.95       98.91       98.87       98.83       98.78       98.74       98.70       98.65       98.61    
        98.56       98.52       98.47       98.42       98.38       98.33       98.28       98.23       98.18       98.13    
        98.08       98.03       97.98       97.93       97.88       97.83       97.77       97.72       97.67       97.62    
        97.57       97.52       97.49       97.48       97.47       97.46       97.45       97.45       97.44       97.44    
        97.43       97.43       97.43       97.43       97.43       97.43       97.43       97.44       97.45       97.45    
        97.46       97.47       97.48       97.50       97.51       97.53       97.54       97.56       97.58       97.60    
        97.62       97.65       97.67       97.69       97.72       97.74       97.76       97.79       97.81       97.84    
        97.87       97.89       97.92       97.94       97.97       97.99       98.02       98.04       98.07       98.09    
        98.12       98.14       98.16       98.19       98.21       98.23       98.26       98.28       98.30       98.33    
        98.35       98.37       98.39       98.41       98.43       98.46       98.48       98.50       98.52       98.54    
        98.56       98.58       98.60       98.62       98.64       98.67       98.69       98.71       98.73       98.75    
        98.77       98.79       98.81       98.83       98.86       98.88       98.90       98.92       98.94       98.96    
        98.96       98.97       98.97       98.98       98.98       98.99       98.99       99.00       99.00       99.01    
        99.02       99.02       99.03       99.03       99.04       99.05       99.05       99.05       99.06       99.06    
        99.07       99.07       99.08       99.08       99.09       99.09       99.10       99.10       99.11       99.12    
        99.12       99.13       99.13       99.14       99.15       99.15       99.16       99.16       99.17       99.18    
        99.18       99.19       99.20       99.20       99.21       99.22       99.23       99.23       99.24       99.25    
        99.25       99.26       99.27       99.28       99.28       99.29       99.30       99.31       99.31       99.32    
        99.33       99.34       99.34       99.35       99.36       99.37       99.37       99.38       99.39       99.40    
   5    99.20       99.14       99.09       99.04       98.98       98.93       98.88       98.82       98.77       98.71    
        98.66       98.60       98.55       98.49       98.43       98.38       98.32       98.26       98.20       98.14    
        98.08       98.02       97.96       97.90       97.83       97.77       97.71       97.64       97.58       97.51    
        97.44       97.38       97.31       97.24       97.17       97.10       97.03       96.96       96.89       96.82    
        96.76       96.69       96.65       96.64       96.62       96.61       96.60       96.59       96.59       96.58    
        96.57       96.57       96.57       96.57       96.57       96.57       96.58       96.58       96.59       96.60    
        96.61       96.63       96.64       96.66       96.68       96.70       96.72       96.75       96.77       96.80    
        96.83       96.86       96.89       96.92       96.95       96.99       97.02       97.05       97.09       97.12    
        97.15       97.19       97.22       97.26       97.29       97.32       97.36       97.39       97.42       97.46    
        97.49       97.52       97.55       97.58       97.62       97.65       97.68       97.71       97.74       97.77    
        97.80       97.83       97.85       97.88       97.91       97.94       97.97       98.00       98.03       98.05    
        98.08       98.11       98.14       98.16       98.19       98.22       98.25       98.28       98.30       98.33    
        98.36       98.39       98.42       98.45       98.47       98.50       98.53       98.56       98.59       98.61    
        98.62       98.62       98.63       98.63       98.64       98.65       98.66       98.66       98.67       98.68    
        98.69       98.69       98.70       98.71       98.72       98.73       98.73       98.74       98.74       98.75    
        98.76       98.76       98.77       98.78       98.78       98.79       98.80       98.81       98.81       98.82    
        98.83       98.84       98.84       98.85       98.86       98.87       98.88       98.89       98.89       98.90    
        98.91       98.92       98.93       98.94       98.95       98.96       98.97       98.98       98.99       99.00    
        99.01       99.02       99.02       99.03       99.04       99.05       99.06       99.07       99.08       99.09    
        99.10       99.11       99.12       99.13       99.15       99.16       99.17       99.18       99.19       99.20    
   6    98.99       98.93       98.86       98.80       98.73       98.66       98.60       98.53       98.46       98.39    
        98.32       98.25       98.19       98.12       98.04       97.97       97.90       97.83       97.75       97.68    
        97.60       97.53       97.45       97.37       97.29       97.22       97.13       97.05       96.97       96.89    
        96.80       96.72       96.64       96.55       96.46       96.38       96.29       96.20       96.12       96.03    
        95.94       95.86       95.81       95.79       95.78       95.76       95.75       95.74       95.73       95.72    
        95.72       95.71       95.71       95.71       95.71       95.71       95.72       95.73       95.74       95.75    
        95.76       95.78       95.80       95.82       95.85       95.87       95.90       95.93       95.97       96.00    
        96.04       96.07       96.11       96.15       96.19       96.23       96.27       96.31       96.36       96.40    
        96.44       96.49       96.53       96.57       96.61       96.66       96.70       96.74       96.78       96.82    
        96.86       96.90       96.94       96.98       97.02       97.06       97.10       97.14       97.17       97.21    
        97.25       97.28       97.32       97.36       97.39       97.43       97.46       97.50       97.53       97.57    
        97.60       97.64       97.67       97.71       97.74       97.78       97.81       97.85       97.88       97.92    
        97.95       97.99       98.02       98.06       98.09       98.13       98.17       98.20       98.24       98.26    
        98.27       98.28       98.28       98.29       98.30       98.31       98.32       98.33       98.34       98.35    
        98.36       98.37       98.38       98.39       98.40       98.41       98.42       98.42       98.43       98.44    
        98.45       98.45       98.46       98.47       98.48       98.49       98.50       98.51       98.52       98.53    
        98.54       98.55       98.56       98.57       98.58       98.59       98.60       98.61       98.62       98.63    
        98.64       98.65       98.66       98.67       98.69       98.70       98.71       98.72       98.73       98.74    
        98.76       98.77       98.78       98.79       98.81       98.82       98.83       98.84       98.86       98.87    
        98.88       98.89       98.91       98.92       98.93       98.94       98.96       98.97       98.98       98.99    
   7    98.79       98.71       98.64       98.56       98.48       98.40       98.32       98.23       98.15       98.07    
        97.99       97.91       97.82       97.74       97.65       97.57       97.48       97.40       97.31       97.22    
        97.13       97.04       96.94       96.85       96.76       96.66       96.56       96.47       96.37       96.27    
        96.17       96.07       95.96       95.86       95.76       95.65       95.55       95.44       95.34       95.24    
        95.13       95.03       94.97       94.95       94.93       94.91       94.90       94.89       94.87       94.86    
        94.86       94.85       94.85       94.84       94.85       94.85       94.86       94.87       94.88       94.89    
        94.91       94.93       94.96       94.98       95.01       95.05       95.08       95.12       95.16       95.20    
        95.24       95.28       95.33       95.38       95.43       95.48       95.53       95.58       95.63       95.68    
        95.73       95.78       95.83       95.89       95.94       95.99       96.04       96.09       96.14       96.19    
        96.24       96.28       96.33       96.38       96.43       96.47       96.52       96.56       96.61       96.65    
        96.70       96.74       96.78       96.83       96.87       96.91       96.95       97.00       97.04       97.08    
        97.12       97.16       97.21       97.25       97.29       97.33       97.37       97.41       97.46       97.50    
        97.54       97.58       97.63       97.67       97.71       97.75       97.80       97.84       97.89       97.91    
        97.92       97.93       97.94       97.95       97.96       97.97       97.98       97.99       98.01       98.02    
        98.03       98.04       98.05       98.07       98.08       98.09       98.10       98.11       98.12       98.13    
        98.13       98.14       98.15       98.16       98.18       98.19       98.20       98.21       98.22       98.23    
        98.24       98.25       98.27       98.28       98.29       98.30       98.32       98.33       98.34       98.35    
        98.37       98.38       98.39       98.41       98.42       98.44       98.45       98.46       98.48       98.49    
        98.51       98.52       98.54       98.55       98.57       98.58       98.60       98.61       98.63       98.64    
        98.66       98.67       98.69       98.70       98.72       98.73       98.75       98.76       98.78       98.79    
   8    98.59       98.50       98.41       98.32       98.22       98.13       98.04       97.94       97.85       97.75    
        97.66       97.56       97.46       97.36       97.27       97.17       97.07       96.96       96.86       96.76    
        96.65       96.54       96.44       96.33       96.22       96.11       95.99       95.88       95.76       95.65    
        95.53       95.41       95.29       95.17       95.05       94.93       94.81       94.68       94.56       94.44    
        94.32       94.20       94.13       94.10       94.08       94.06       94.04       94.03       94.01       94.00    
        93.99       93.99       93.98       93.98       93.98       93.98       93.99       94.00       94.02       94.03    
        94.06       94.08       94.11       94.14       94.18       94.21       94.25       94.30       94.34       94.39    
        94.44       94.49       94.55       94.60       94.66       94.72       94.78       94.84       94.90       94.96    
        95.02       95.08       95.14       95.20       95.26       95.32       95.38       95.44       95.50       95.55    
        95.61       95.67       95.72       95.78       95.83       95.89       95.94       95.99       96.04       96.10    
        96.15       96.20       96.25       96.30       96.35       96.40       96.45       96.50       96.54       96.59    
        96.64       96.69       96.74       96.79       96.84       96.89       96.93       96.98       97.03       97.08    
        97.13       97.18       97.23       97.28       97.33       97.38       97.43       97.48       97.53       97.56    
        97.57       97.59       97.60       97.61       97.62       97.63       97.65       97.66       97.67       97.69    
        97.70       97.71       97.73       97.74       97.76       97.77       97.78       97.79       97.80       97.81    
        97.82       97.83       97.85       97.86       97.87       97.88       97.90       97.91       97.92       97.93    
        97.95       97.96       97.98       97.99       98.00       98.02       98.03       98.05       98.06       98.08    
        98.10       98.11       98.13       98.14       98.16       98.18       98.19       98.21       98.23       98.24    
        98.26       98.28       98.29       98.31       98.33       98.34       98.36       98.38       98.40       98.41    
        98.43       98.45       98.47       98.49       98.50       98.52       98.54       98.56       98.58       98.59    
   9    98.39       98.29       98.18       98.07       97.97       97.86       97.76       97.65       97.54       97.43    
        97.32       97.21       97.10       96.99       96.88       96.76       96.65       96.53       96.42       96.30    
        96.18       96.05       95.93       95.81       95.68       95.55       95.42       95.29       95.16       95.03    
        94.89       94.76       94.62       94.48       94.35       94.21       94.07       93.92       93.78       93.64    
        93.50       93.37       93.28       93.26       93.23       93.21       93.19       93.17       93.15       93.14    
        93.13       93.12       93.11       93.11       93.11       93.12       93.12       93.14       93.15       93.17    
        93.20       93.23       93.26       93.29       93.33       93.38       93.43       93.48       93.53       93.58    
        93.64       93.70       93.77       93.83       93.90       93.96       94.03       94.10       94.17       94.24    
        94.31       94.38       94.45       94.51       94.58       94.65       94.72       94.79       94.85       94.92    
        94.98       95.05       95.11       95.18       95.24       95.30       95.36       95.42       95.48       95.54    
        95.60       95.66       95.71       95.77       95.83       95.88       95.94       96.00       96.05       96.11    
        96.16       96.22       96.27       96.33       96.38       96.44       96.50       96.55       96.61       96.66    
        96.72       96.78       96.83       96.89       96.95       97.00       97.06       97.12       97.18       97.22    
        97.23       97.24       97.25       97.27       97.28       97.29       97.31       97.32       97.34       97.35    
        97.37       97.39       97.40       97.42       97.44       97.45       97.46       97.47       97.49       97.50    
        97.51       97.52       97.54       97.55       97.57       97.58       97.59       97.61       97.62       97.64    
        97.65       97.67       97.69       97.70       97.72       97.74       97.75       97.77       97.79       97.81    
        97.82       97.84       97.86       97.88       97.90       97.91       97.93       97.95       97.97       97.99    
        98.01       98.03       98.05       98.07       98.09       98.11       98.13       98.15       98.17       98.19    
        98.21       98.23       98.25       98.27       98.29       98.31       98.33       98.35       98.37       98.39    
  10    98.19       98.07       97.95       97.84       97.72       97.60       97.48       97.36       97.24       97.11    
        96.99       96.87       96.74       96.62       96.49       96.36       96.23       96.10       95.97       95.84    
        95.70       95.57       95.43       95.29       95.15       95.00       94.86       94.71       94.56       94.41    
        94.26       94.11       93.95       93.80       93.64       93.48       93.32       93.17       93.01       92.85    
        92.69       92.53       92.44       92.41       92.38       92.35       92.33       92.31       92.29       92.27    
        92.26       92.25       92.24       92.24       92.24       92.24       92.25       92.27       92.28       92.31    
        92.33       92.37       92.40       92.44       92.49       92.54       92.59       92.65       92.71       92.77    
        92.84       92.91       92.98       93.05       93.13       93.21       93.28       93.36       93.44       93.52    
        93.60       93.67       93.75       93.83       93.91       93.98       94.06       94.14       94.21       94.29    
        94.36       94.43       94.50       94.57       94.64       94.71       94.78       94.85       94.92       94.98    
        95.05       95.11       95.18       95.24       95.31       95.37       95.43       95.50       95.56       95.62    
        95.68       95.75       95.81       95.87       95.93       95.99       96.06       96.12       96.18       96.25    
        96.31       96.37       96.44       96.50       96.56       96.63       96.69       96.76       96.83       96.87    
        96.88       96.89       96.91       96.92       96.94       96.95       96.97       96.99       97.00       97.02    
        97.04       97.06       97.08       97.10       97.12       97.13       97.14       97.16       97.17       97.19    
        97.20       97.21       97.23       97.24       97.26       97.28       97.29       97.31       97.33       97.34    
        97.36       97.38       97.40       97.41       97.43       97.45       97.47       97.49       97.51       97.53    
        97.55       97.57       97.59       97.61       97.63       97.65       97.67       97.70       97.72       97.74    
        97.76       97.78       97.80       97.83       97.85       97.87       97.89       97.92       97.94       97.96    
        97.98       98.01       98.03       98.05       98.08       98.10       98.12       98.14       98.17       98.19    
  11    97.99       97.86       97.73       97.60       97.46       97.33       97.20       97.06       96.93       96.80    
        96.66       96.52       96.38       96.25       96.11       95.96       95.82       95.68       95.53       95.38    
        95.23       95.08       94.93       94.77       94.61       94.45       94.29       94.13       93.96       93.80    
        93.63       93.46       93.28       93.11       92.94       92.76       92.58       92.41       92.23       92.05    
        91.87       91.70       91.59       91.56       91.53       91.50       91.47       91.45       91.42       91.40    
        91.39       91.38       91.37       91.36       91.36       91.37       91.38       91.39       91.41       91.44    
        91.47       91.50       91.54       91.59       91.64       91.70       91.76       91.82       91.89       91.96    
        92.04       92.11       92.20       92.28       92.36       92.45       92.53       92.62       92.71       92.80    
        92.88       92.97       93.06       93.15       93.23       93.32       93.40       93.49       93.57       93.65    
        93.74       93.82       93.90       93.97       94.05       94.13       94.20       94.28       94.35       94.43    
        94.50       94.57       94.64       94.72       94.79       94.86       94.93       95.00       95.07       95.14    
        95.20       95.27       95.34       95.41       95.48       95.55       95.62       95.69       95.76       95.83    
        95.90       95.97       96.04       96.11       96.18       96.25       96.33       96.40       96.47       96.52    
        96.53       96.55       96.56       96.58       96.60       96.61       96.63       96.65       96.67       96.69    
        96.71       96.73       96.75       96.77       96.79       96.81       96.83       96.84       96.86       96.87    
        96.89       96.90       96.92       96.94       96.95       96.97       96.99       97.01       97.03       97.05    
        97.07       97.09       97.11       97.13       97.15       97.17       97.19       97.21       97.23       97.25    
        97.28       97.30       97.32       97.35       97.37       97.39       97.42       97.44       97.46       97.49    
        97.51       97.54       97.56       97.58       97.61       97.63       97.66       97.68       97.71       97.74    
        97.76       97.79       97.81       97.84       97.86       97.89       97.91       97.94       97.96       97.99    
  12    97.79       97.64       97.50       97.36       97.21       97.07       96.92       96.77       96.63       96.48    
        96.33       96.18       96.03       95.88       95.72       95.57       95.41       95.25       95.09       94.93    
        94.76       94.59       94.42       94.25       94.08       93.91       93.73       93.55       93.37       93.18    
        93.00       92.81       92.62       92.43       92.23       92.04       91.84       91.65       91.45       91.25    
        91.06       90.86       90.74       90.71       90.67       90.64       90.61       90.58       90.55       90.53    
        90.51       90.50       90.49       90.48       90.48       90.49       90.50       90.51       90.53       90.56    
        90.59       90.63       90.68       90.73       90.79       90.85       90.92       90.99       91.07       91.15    
        91.23       91.32       91.41       91.50       91.59       91.69       91.78       91.88       91.98       92.07    
        92.17       92.27       92.37       92.46       92.56       92.65       92.75       92.84       92.93       93.02    
        93.11       93.20       93.29       93.37       93.46       93.54       93.63       93.71       93.79       93.87    
        93.95       94.03       94.11       94.19       94.27       94.34       94.42       94.50       94.57       94.65    
        94.72       94.80       94.88       94.95       95.03       95.10       95.18       95.26       95.33       95.41    
        95.49       95.56       95.64       95.72       95.80       95.88       95.96       96.04       96.12       96.17    
        96.18       96.20       96.22       96.24       96.26       96.27       96.29       96.31       96.34       96.36    
        96.38       96.40       96.42       96.45       96.47       96.49       96.51       96.52       96.54       96.56    
        96.57       96.59       96.61       96.63       96.65       96.67       96.69       96.71       96.73       96.75    
        96.77       96.79       96.82       96.84       96.86       96.88       96.91       96.93       96.96       96.98    
        97.00       97.03       97.05       97.08       97.10       97.13       97.16       97.18       97.21       97.24    
        97.26       97.29       97.32       97.34       97.37       97.40       97.43       97.45       97.48       97.51    
        97.54       97.56       97.59       97.62       97.65       97.68       97.70       97.73       97.76       97.79    
  13    97.59       97.43       97.27       97.12       96.96       96.80       96.64       96.48       96.32       96.16    
        96.00       95.84       95.67       95.51       95.34       95.17       95.00       94.82       94.65       94.47    
        94.29       94.11       93.93       93.74       93.55       93.36       93.17       92.97       92.77       92.57    
        92.37       92.16       91.95       91.74       91.53       91.32       91.10       90.89       90.67       90.46    
        90.24       90.02       89.90       89.85       89.81       89.78       89.74       89.71       89.68       89.66    
        89.63       89.62       89.60       89.60       89.59       89.60       89.61       89.63       89.65       89.68    
        89.72       89.76       89.81       89.87       89.93       90.00       90.07       90.15       90.24       90.33    
        90.42       90.52       90.62       90.72       90.82       90.93       91.03       91.14       91.25       91.35    
        91.46       91.57       91.67       91.78       91.88       91.99       92.09       92.19       92.29       92.39    
        92.49       92.59       92.68       92.78       92.87       92.96       93.05       93.14       93.23       93.32    
        93.41       93.49       93.58       93.66       93.75       93.83       93.91       94.00       94.08       94.16    
        94.25       94.33       94.41       94.49       94.58       94.66       94.74       94.82       94.91       94.99    
        95.07       95.16       95.24       95.33       95.41       95.50       95.59       95.67       95.76       95.82    
        95.83       95.85       95.87       95.89       95.91       95.93       95.96       95.98       96.00       96.02    
        96.05       96.07       96.10       96.12       96.15       96.17       96.19       96.21       96.22       96.24    
        96.26       96.28       96.30       96.32       96.34       96.36       96.39       96.41       96.43       96.45    
        96.48       96.50       96.52       96.55       96.57       96.60       96.63       96.65       96.68       96.70    
        96.73       96.76       96.79       96.81       96.84       96.87       96.90       96.93       96.95       96.98    
        97.01       97.04       97.07       97.10       97.13       97.16       97.19       97.22       97.25       97.28    
        97.31       97.34       97.37       97.40       97.43       97.46       97.50       97.53       97.56       97.59    
  14    97.39       97.22       97.05       96.88       96.71       96.54       96.37       96.20       96.02       95.85    
        95.67       95.50       95.32       95.14       94.96       94.77       94.59       94.40       94.21       94.02    
        93.83       93.63       93.43       93.23       93.02       92.82       92.61       92.39       92.18       91.96    
        91.74       91.52       91.29       91.06       90.83       90.60       90.37       90.13       89.89       89.66    
        89.42       89.18       89.04       89.00       88.96       88.91       88.87       88.84       88.81       88.78    
        88.75       88.73       88.72       88.71       88.70       88.71       88.72       88.73       88.76       88.79    
        88.83       88.88       88.93       89.00       89.07       89.14       89.22       89.31       89.41       89.50    
        89.61       89.71       89.82       89.93       90.05       90.16       90.28       90.40       90.51       90.63    
        90.75       90.87       90.98       91.10       91.21       91.32       91.44       91.55       91.66       91.76    
        91.87       91.97       92.08       92.18       92.28       92.38       92.48       92.58       92.67       92.77    
        92.86       92.95       93.05       93.14       93.23       93.32       93.41       93.50       93.59       93.68    
        93.77       93.86       93.94       94.03       94.12       94.21       94.30       94.39       94.48       94.57    
        94.66       94.75       94.85       94.94       95.03       95.12       95.22       95.31       95.41       95.46    
        95.48       95.50       95.53       95.55       95.57       95.59       95.62       95.64       95.66       95.69    
        95.72       95.74       95.77       95.80       95.83       95.85       95.87       95.89       95.91       95.93    
        95.95       95.97       95.99       96.01       96.04       96.06       96.08       96.11       96.13       96.16    
        96.18       96.21       96.23       96.26       96.29       96.31       96.34       96.37       96.40       96.43    
        96.46       96.49       96.52       96.55       96.58       96.61       96.64       96.67       96.70       96.73    
        96.76       96.79       96.83       96.86       96.89       96.92       96.96       96.99       97.02       97.05    
        97.09       97.12       97.15       97.19       97.22       97.25       97.29       97.32       97.35       97.39    
  15    97.19       97.00       96.82       96.64       96.46       96.28       96.09       95.91       95.72       95.53    
        95.35       95.16       94.97       94.77       94.58       94.38       94.18       93.98       93.78       93.57    
        93.36       93.15       92.94       92.72       92.50       92.28       92.05       91.82       91.59       91.35    
        91.12       90.87       90.63       90.38       90.13       89.88       89.63       89.37       89.12       88.86    
        88.60       88.34       88.19       88.14       88.09       88.05       88.00       87.96       87.93       87.89    
        87.86       87.84       87.82       87.81       87.80       87.80       87.81       87.83       87.86       87.89    
        87.94       87.99       88.05       88.12       88.19       88.28       88.37       88.47       88.57       88.68    
        88.79       88.91       89.03       89.15       89.27       89.40       89.53       89.66       89.78       89.91    
        90.04       90.17       90.29       90.42       90.54       90.66       90.78       90.90       91.02       91.14    
        91.25       91.36       91.47       91.58       91.69       91.80       91.90       92.01       92.11       92.21    
        92.31       92.41       92.51       92.61       92.71       92.81       92.90       93.00       93.10       93.19    
        93.29       93.38       93.48       93.57       93.67       93.77       93.86       93.96       94.06       94.15    
        94.25       94.35       94.45       94.55       94.65       94.75       94.85       94.95       95.05       95.11    
        95.13       95.16       95.18       95.20       95.23       95.25       95.28       95.30       95.33       95.36    
        95.38       95.41       95.44       95.47       95.50       95.53       95.55       95.57       95.59       95.61    
        95.63       95.66       95.68       95.70       95.73       95.75       95.78       95.80       95.83       95.86    
        95.89       95.91       95.94       95.97       96.00       96.03       96.06       96.09       96.12       96.15    
        96.18       96.21       96.25       96.28       96.31       96.34       96.38       96.41       96.44       96.48    
        96.51       96.55       96.58       96.62       96.65       96.69       96.72       96.76       96.79       96.83    
        96.86       96.90       96.93       96.97       97.01       97.04       97.08       97.11       97.15       97.19    
  16    96.98       96.79       96.60       96.40       96.21       96.01       95.82       95.62       95.42       95.22    
        95.02       94.82       94.61       94.41       94.20       93.99       93.78       93.56       93.35       93.13    
        92.90       92.68       92.45       92.21       91.98       91.74       91.50       91.25       91.00       90.75    
        90.49       90.23       89.97       89.71       89.44       89.17       88.89       88.62       88.34       88.06    
        87.78       87.50       87.34       87.28       87.23       87.18       87.13       87.08       87.04       87.00    
        86.97       86.94       86.92       86.90       86.90       86.90       86.91       86.92       86.95       86.99    
        87.03       87.09       87.16       87.23       87.32       87.41       87.51       87.61       87.73       87.85    
        87.97       88.10       88.23       88.36       88.50       88.64       88.77       88.91       89.05       89.19    
        89.33       89.47       89.60       89.74       89.87       90.00       90.13       90.26       90.39       90.51    
        90.63       90.75       90.87       90.99       91.11       91.22       91.33       91.44       91.55       91.66    
        91.77       91.88       91.98       92.09       92.19       92.30       92.40       92.50       92.60       92.71    
        92.81       92.91       93.01       93.11       93.22       93.32       93.42       93.53       93.63       93.73    
        93.84       93.94       94.05       94.15       94.26       94.37       94.48       94.58       94.69       94.76    
        94.78       94.81       94.83       94.86       94.88       94.91       94.93       94.96       94.99       95.02    
        95.05       95.08       95.11       95.15       95.18       95.21       95.23       95.25       95.27       95.30    
        95.32       95.34       95.37       95.39       95.42       95.45       95.47       95.50       95.53       95.56    
        95.59       95.62       95.65       95.68       95.71       95.74       95.78       95.81       95.84       95.87    
        95.91       95.94       95.98       96.01       96.05       96.08       96.12       96.15       96.19       96.23    
        96.26       96.30       96.34       96.37       96.41       96.45       96.49       96.52       96.56       96.60    
        96.64       96.68       96.72       96.75       96.79       96.83       96.87       96.91       96.95       96.98    
  17    96.78       96.58       96.37       96.17       95.96       95.75       95.54       95.33       95.12       94.91    
        94.70       94.48       94.27       94.05       93.83       93.60       93.38       93.15       92.92       92.68    
        92.44       92.20       91.96       91.71       91.46       91.21       90.95       90.69       90.42       90.15    
        89.88       89.60       89.32       89.03       88.74       88.45       88.16       87.86       87.56       87.26    
        86.96       86.66       86.48       86.42       86.36       86.31       86.25       86.20       86.15       86.11    
        86.07       86.04       86.01       85.99       85.98       85.98       85.99       86.01       86.03       86.07    
        86.12       86.18       86.25       86.34       86.43       86.53       86.64       86.76       86.88       87.01    
        87.14       87.28       87.43       87.57       87.72       87.87       88.02       88.17       88.32       88.47    
        88.62       88.77       88.91       89.06       89.20       89.34       89.48       89.62       89.75       89.89    
        90.02       90.15       90.27       90.40       90.52       90.64       90.76       90.88       91.00       91.11    
        91.23       91.34       91.45       91.56       91.68       91.79       91.90       92.00       92.11       92.22    
        92.33       92.44       92.55       92.66       92.76       92.87       92.98       93.09       93.20       93.31    
        93.42       93.53       93.65       93.76       93.87       93.99       94.10       94.22       94.34       94.41    
        94.43       94.46       94.48       94.51       94.54       94.56       94.59       94.62       94.65       94.69    
        94.72       94.75       94.78       94.82       94.85       94.88       94.91       94.93       94.95       94.98    
        95.00       95.03       95.06       95.08       95.11       95.14       95.17       95.20       95.23       95.26    
        95.29       95.32       95.36       95.39       95.42       95.46       95.49       95.53       95.56       95.60    
        95.63       95.67       95.71       95.74       95.78       95.82       95.86       95.90       95.93       95.97    
        96.01       96.05       96.09       96.13       96.17       96.21       96.25       96.29       96.33       96.37    
        96.41       96.45       96.50       96.54       96.58       96.62       96.66       96.70       96.74       96.78    
  18    96.58       96.37       96.15       95.93       95.71       95.49       95.27       95.05       94.83       94.60    
        94.38       94.15       93.92       93.69       93.45       93.22       92.98       92.73       92.49       92.24    
        91.99       91.73       91.48       91.21       90.95       90.68       90.40       90.12       89.84       89.55    
        89.26       88.97       88.67       88.36       88.06       87.74       87.43       87.11       86.79       86.47    
        86.14       85.82       85.62       85.56       85.50       85.44       85.37       85.32       85.26       85.21    
        85.17       85.13       85.10       85.07       85.06       85.05       85.06       85.08       85.11       85.15    
        85.20       85.27       85.34       85.43       85.53       85.64       85.76       85.89       86.03       86.17    
        86.32       86.47       86.62       86.78       86.94       87.10       87.27       87.43       87.59       87.75    
        87.91       88.07       88.23       88.38       88.54       88.69       88.83       88.98       89.12       89.26    
        89.40       89.54       89.67       89.81       89.94       90.07       90.19       90.32       90.44       90.56    
        90.69       90.81       90.92       91.04       91.16       91.28       91.39       91.51       91.62       91.74    
        91.85       91.97       92.08       92.20       92.31       92.43       92.54       92.66       92.77       92.89    
        93.01       93.13       93.25       93.37       93.49       93.61       93.73       93.85       93.98       94.05    
        94.08       94.10       94.13       94.16       94.19       94.22       94.25       94.28       94.32       94.35    
        94.38       94.42       94.45       94.49       94.53       94.56       94.58       94.61       94.63       94.66    
        94.69       94.72       94.74       94.77       94.80       94.83       94.87       94.90       94.93       94.96    
        95.00       95.03       95.06       95.10       95.14       95.17       95.21       95.24       95.28       95.32    
        95.36       95.40       95.44       95.48       95.52       95.56       95.60       95.64       95.68       95.72    
        95.76       95.80       95.85       95.89       95.93       95.97       96.02       96.06       96.10       96.15    
        96.19       96.23       96.28       96.32       96.36       96.41       96.45       96.50       96.54       96.58    
  19    96.38       96.15       95.92       95.69       95.46       95.23       95.00       94.77       94.53       94.29    
        94.06       93.82       93.57       93.33       93.08       92.83       92.58       92.33       92.07       91.80    
        91.54       91.27       91.00       90.72       90.44       90.15       89.86       89.57       89.27       88.96    
        88.65       88.34       88.02       87.70       87.37       87.04       86.70       86.36       86.02       85.67    
        85.33       84.98       84.77       84.70       84.63       84.56       84.49       84.43       84.37       84.31    
        84.26       84.21       84.17       84.15       84.13       84.12       84.12       84.14       84.17       84.21    
        84.27       84.34       84.42       84.52       84.63       84.75       84.88       85.02       85.17       85.32    
        85.48       85.65       85.82       85.99       86.16       86.34       86.51       86.69       86.86       87.04    
        87.21       87.38       87.54       87.71       87.87       88.03       88.19       88.34       88.49       88.64    
        88.79       88.94       89.08       89.22       89.36       89.49       89.63       89.76       89.89       90.02    
        90.14       90.27       90.40       90.52       90.64       90.77       90.89       91.01       91.13       91.25    
        91.37       91.49       91.61       91.74       91.86       91.98       92.10       92.22       92.35       92.47    
        92.59       92.72       92.85       92.97       93.10       93.23       93.36       93.49       93.62       93.70    
        93.72       93.75       93.78       93.81       93.84       93.87       93.91       93.94       93.98       94.01    
        94.05       94.08       94.12       94.16       94.20       94.23       94.26       94.29       94.31       94.34    
        94.37       94.40       94.43       94.46       94.49       94.53       94.56       94.59       94.63       94.66    
        94.70       94.73       94.77       94.81       94.85       94.88       94.92       94.96       95.00       95.04    
        95.08       95.12       95.17       95.21       95.25       95.29       95.34       95.38       95.42       95.47    
        95.51       95.56       95.60       95.65       95.69       95.74       95.78       95.83       95.87       95.92    
        95.96       96.01       96.06       96.10       96.15       96.20       96.24       96.29       96.34       96.38    
  20    96.18       95.94       95.70       95.46       95.22       94.97       94.73       94.48       94.24       93.99    
        93.74       93.49       93.23       92.97       92.72       92.45       92.19       91.92       91.65       91.37    
        91.09       90.81       90.52       90.23       89.93       89.63       89.32       89.01       88.70       88.37    
        88.05       87.71       87.38       87.03       86.69       86.33       85.98       85.62       85.25       84.88    
        84.51       84.13       83.91       83.83       83.76       83.68       83.61       83.54       83.47       83.40    
        83.34       83.29       83.24       83.21       83.18       83.17       83.17       83.18       83.21       83.26    
        83.32       83.39       83.48       83.59       83.71       83.84       83.98       84.14       84.30       84.47    
        84.64       84.82       85.01       85.19       85.38       85.57       85.76       85.95       86.13       86.32    
        86.50       86.68       86.86       87.04       87.21       87.38       87.55       87.71       87.87       88.03    
        88.18       88.33       88.48       88.63       88.78       88.92       89.06       89.20       89.34       89.47    
        89.60       89.74       89.87       90.00       90.13       90.26       90.38       90.51       90.64       90.77    
        90.89       91.02       91.15       91.28       91.40       91.53       91.66       91.79       91.92       92.05    
        92.18       92.31       92.44       92.58       92.71       92.85       92.98       93.12       93.26       93.34    
        93.37       93.40       93.43       93.46       93.50       93.53       93.56       93.60       93.64       93.67    
        93.71       93.75       93.79       93.83       93.87       93.91       93.94       93.96       93.99       94.02    
        94.05       94.09       94.12       94.15       94.18       94.22       94.25       94.29       94.32       94.36    
        94.40       94.44       94.48       94.52       94.56       94.60       94.64       94.68       94.72       94.76    
        94.81       94.85       94.89       94.94       94.98       95.03       95.07       95.12       95.17       95.21    
        95.26       95.31       95.35       95.40       95.45       95.50       95.55       95.59       95.64       95.69    
        95.74       95.79       95.84       95.89       95.94       95.98       96.03       96.08       96.13       96.18    
  21    95.98       95.73       95.48       95.22       94.97       94.71       94.46       94.20       93.94       93.68    
        93.42       93.16       92.89       92.62       92.35       92.08       91.80       91.52       91.23       90.94    
        90.65       90.35       90.05       89.74       89.43       89.11       88.79       88.46       88.13       87.79    
        87.45       87.10       86.74       86.38       86.01       85.64       85.26       84.87       84.48       84.09    
        83.69       83.29       83.05       82.97       82.89       82.81       82.72       82.64       82.56       82.49    
        82.42       82.36       82.30       82.26       82.23       82.21       82.20       82.21       82.24       82.29    
        82.35       82.43       82.53       82.65       82.78       82.92       83.08       83.25       83.42       83.61    
        83.80       84.00       84.20       84.40       84.60       84.80       85.01       85.21       85.41       85.61    
        85.80       85.99       86.18       86.37       86.55       86.73       86.91       87.08       87.25       87.41    
        87.58       87.74       87.89       88.05       88.20       88.35       88.50       88.64       88.78       88.93    
        89.07       89.20       89.34       89.48       89.61       89.75       89.88       90.02       90.15       90.28    
        90.42       90.55       90.68       90.81       90.95       91.08       91.22       91.35       91.49       91.63    
        91.76       91.90       92.04       92.18       92.32       92.46       92.61       92.75       92.90       92.98    
        93.01       93.05       93.08       93.11       93.15       93.18       93.22       93.26       93.29       93.33    
        93.37       93.42       93.46       93.50       93.55       93.58       93.61       93.64       93.67       93.70    
        93.74       93.77       93.80       93.84       93.87       93.91       93.95       93.98       94.02       94.06    
        94.10       94.14       94.18       94.22       94.27       94.31       94.35       94.40       94.44       94.49    
        94.53       94.58       94.62       94.67       94.72       94.77       94.81       94.86       94.91       94.96    
        95.01       95.06       95.11       95.16       95.21       95.26       95.31       95.36       95.41       95.46    
        95.51       95.57       95.62       95.67       95.72       95.77       95.82       95.88       95.93       95.98    
  22    95.78       95.52       95.25       94.99       94.72       94.46       94.19       93.92       93.65       93.38    
        93.11       92.83       92.55       92.27       91.99       91.70       91.41       91.12       90.82       90.52    
        90.21       89.90       89.58       89.26       88.93       88.60       88.26       87.92       87.57       87.21    
        86.85       86.48       86.11       85.73       85.34       84.94       84.54       84.14       83.72       83.30    
        82.88       82.46       82.20       82.11       82.02       81.93       81.84       81.75       81.66       81.57    
        81.49       81.42       81.35       81.30       81.26       81.23       81.22       81.23       81.26       81.30    
        81.37       81.46       81.57       81.69       81.83       81.99       82.16       82.35       82.54       82.74    
        82.95       83.16       83.38       83.60       83.82       84.04       84.25       84.47       84.68       84.89    
        85.10       85.31       85.51       85.70       85.89       86.08       86.27       86.45       86.63       86.80    
        86.97       87.14       87.30       87.47       87.62       87.78       87.93       88.09       88.23       88.38    
        88.53       88.67       88.82       88.96       89.10       89.24       89.38       89.52       89.66       89.80    
        89.94       90.08       90.21       90.35       90.49       90.63       90.77       90.92       91.06       91.20    
        91.35       91.49       91.64       91.78       91.93       92.08       92.23       92.38       92.53       92.63    
        92.66       92.69       92.72       92.76       92.80       92.83       92.87       92.91       92.95       92.99    
        93.04       93.08       93.12       93.17       93.22       93.26       93.29       93.32       93.35       93.38    
        93.42       93.45       93.49       93.52       93.56       93.60       93.64       93.68       93.72       93.76    
        93.80       93.84       93.89       93.93       93.97       94.02       94.07       94.11       94.16       94.21    
        94.25       94.30       94.35       94.40       94.45       94.50       94.55       94.60       94.65       94.71    
        94.76       94.81       94.86       94.91       94.97       95.02       95.07       95.13       95.18       95.24    
        95.29       95.34       95.40       95.45       95.51       95.56       95.62       95.67       95.72       95.78    
  23    95.58       95.30       95.03       94.75       94.48       94.20       93.92       93.64       93.36       93.08    
        92.80       92.51       92.22       91.93       91.63       91.33       91.03       90.72       90.41       90.09    
        89.77       89.45       89.12       88.78       88.44       88.10       87.74       87.38       87.02       86.64    
        86.26       85.88       85.48       85.08       84.67       84.26       83.83       83.40       82.97       82.52    
        82.07       81.62       81.34       81.25       81.15       81.05       80.95       80.85       80.74       80.65    
        80.55       80.47       80.39       80.32       80.27       80.24       80.22       80.22       80.25       80.30    
        80.37       80.46       80.58       80.72       80.87       81.05       81.24       81.44       81.65       81.87    
        82.10       82.33       82.57       82.80       83.04       83.27       83.50       83.73       83.96       84.19    
        84.41       84.62       84.83       85.04       85.24       85.44       85.64       85.83       86.01       86.19    
        86.37       86.55       86.72       86.89       87.05       87.21       87.37       87.53       87.69       87.84    
        87.99       88.14       88.29       88.44       88.59       88.73       88.88       89.02       89.17       89.31    
        89.46       89.60       89.75       89.89       90.04       90.18       90.33       90.48       90.63       90.78    
        90.93       91.08       91.23       91.38       91.54       91.70       91.85       92.01       92.17       92.27    
        92.30       92.33       92.37       92.41       92.45       92.48       92.53       92.57       92.61       92.65    
        92.70       92.74       92.79       92.84       92.89       92.93       92.96       92.99       93.03       93.06    
        93.10       93.13       93.17       93.21       93.25       93.29       93.33       93.37       93.41       93.46    
        93.50       93.55       93.59       93.64       93.68       93.73       93.78       93.83       93.88       93.93    
        93.98       94.03       94.08       94.13       94.18       94.24       94.29       94.34       94.40       94.45    
        94.51       94.56       94.62       94.67       94.73       94.78       94.84       94.89       94.95       95.01    
        95.06       95.12       95.18       95.23       95.29       95.35       95.41       95.46       95.52       95.58    
  24    95.38       95.09       94.81       94.52       94.23       93.95       93.66       93.37       93.08       92.78    
        92.49       92.19       91.89       91.58       91.28       90.96       90.65       90.33       90.01       89.68    
        89.35       89.01       88.66       88.31       87.96       87.60       87.23       86.85       86.47       86.08    
        85.68       85.28       84.87       84.44       84.02       83.58       83.13       82.68       82.22       81.75    
        81.27       80.79       80.49       80.39       80.28       80.17       80.06       79.95       79.83       79.72    
        79.61       79.51       79.42       79.34       79.27       79.22       79.20       79.20       79.22       79.27    
        79.34       79.45       79.57       79.72       79.90       80.09       80.30       80.52       80.75       80.99    
        81.24       81.49       81.75       82.00       82.26       82.51       82.76       83.00       83.24       83.48    
        83.71       83.94       84.16       84.38       84.60       84.80       85.01       85.21       85.40       85.59    
        85.77       85.96       86.14       86.31       86.48       86.65       86.82       86.98       87.14       87.30    
        87.46       87.61       87.77       87.92       88.08       88.23       88.38       88.53       88.68       88.83    
        88.98       89.13       89.28       89.43       89.58       89.73       89.89       90.04       90.20       90.35    
        90.51       90.67       90.83       90.99       91.15       91.31       91.47       91.64       91.81       91.91    
        91.94       91.98       92.01       92.05       92.09       92.13       92.18       92.22       92.27       92.31    
        92.36       92.41       92.46       92.51       92.56       92.60       92.63       92.67       92.70       92.74    
        92.78       92.82       92.85       92.89       92.94       92.98       93.02       93.06       93.11       93.15    
        93.20       93.25       93.29       93.34       93.39       93.44       93.49       93.54       93.59       93.65    
        93.70       93.75       93.81       93.86       93.92       93.97       94.03       94.08       94.14       94.20    
        94.25       94.31       94.37       94.43       94.48       94.54       94.60       94.66       94.72       94.78    
        94.84       94.90       94.96       95.02       95.08       95.14       95.20       95.26       95.32       95.38    
  25    95.18       94.88       94.58       94.29       93.99       93.69       93.39       93.09       92.79       92.49    
        92.18       91.87       91.56       91.24       90.92       90.60       90.27       89.94       89.61       89.27    
        88.92       88.57       88.21       87.85       87.48       87.10       86.72       86.33       85.93       85.53    
        85.11       84.69       84.26       83.82       83.37       82.91       82.44       81.96       81.47       80.98    
        80.47       79.96       79.65       79.54       79.42       79.30       79.17       79.04       78.91       78.79    
        78.66       78.54       78.43       78.33       78.25       78.19       78.16       78.15       78.16       78.21    
        78.29       78.40       78.54       78.71       78.90       79.11       79.34       79.59       79.85       80.11    
        80.38       80.65       80.93       81.20       81.48       81.75       82.01       82.27       82.53       82.78    
        83.03       83.27       83.50       83.73       83.95       84.17       84.38       84.59       84.79       84.99    
        85.18       85.37       85.56       85.74       85.92       86.09       86.26       86.43       86.60       86.76    
        86.93       87.09       87.25       87.41       87.56       87.72       87.88       88.03       88.19       88.34    
        88.50       88.66       88.81       88.97       89.13       89.28       89.44       89.60       89.76       89.93    
        90.09       90.25       90.42       90.58       90.75       90.92       91.09       91.27       91.44       91.54    
        91.58       91.62       91.66       91.70       91.74       91.78       91.83       91.87       91.92       91.97    
        92.02       92.07       92.12       92.17       92.22       92.27       92.30       92.34       92.38       92.42    
        92.46       92.50       92.54       92.58       92.62       92.67       92.71       92.76       92.80       92.85    
        92.90       92.95       93.00       93.05       93.10       93.15       93.20       93.26       93.31       93.37    
        93.42       93.48       93.53       93.59       93.65       93.70       93.76       93.82       93.88       93.94    
        94.00       94.06       94.12       94.18       94.24       94.30       94.37       94.43       94.49       94.55    
        94.61       94.68       94.74       94.80       94.86       94.93       94.99       95.05       95.11       95.18    
  26    94.97       94.67       94.36       94.06       93.75       93.44       93.13       92.82       92.51       92.19    
        91.88       91.56       91.23       90.91       90.58       90.24       89.90       89.56       89.21       88.86    
        88.50       88.14       87.77       87.39       87.01       86.62       86.22       85.81       85.40       84.98    
        84.55       84.11       83.66       83.20       82.73       82.24       81.75       81.25       80.74       80.22    
        79.69       79.14       78.81       78.69       78.57       78.43       78.29       78.15       78.00       77.85    
        77.70       77.56       77.43       77.31       77.21       77.14       77.09       77.06       77.08       77.13    
        77.21       77.33       77.48       77.67       77.88       78.12       78.38       78.65       78.93       79.22    
        79.52       79.81       80.11       80.41       80.70       80.99       81.27       81.55       81.82       82.09    
        82.35       82.60       82.84       83.08       83.32       83.54       83.76       83.98       84.19       84.39    
        84.59       84.79       84.98       85.17       85.35       85.53       85.71       85.88       86.06       86.23    
        86.40       86.56       86.73       86.89       87.05       87.22       87.38       87.54       87.70       87.86    
        88.02       88.18       88.34       88.51       88.67       88.83       89.00       89.16       89.33       89.50    
        89.67       89.84       90.01       90.18       90.36       90.53       90.71       90.89       91.07       91.18    
        91.22       91.26       91.30       91.34       91.39       91.43       91.48       91.52       91.57       91.62    
        91.67       91.73       91.78       91.84       91.89       91.94       91.98       92.01       92.05       92.09    
        92.13       92.17       92.22       92.26       92.31       92.35       92.40       92.45       92.50       92.54    
        92.60       92.65       92.70       92.75       92.80       92.86       92.91       92.97       93.03       93.08    
        93.14       93.20       93.26       93.32       93.38       93.44       93.50       93.56       93.62       93.69    
        93.75       93.81       93.87       93.94       94.00       94.06       94.13       94.19       94.26       94.32    
        94.39       94.45       94.52       94.58       94.65       94.71       94.78       94.84       94.91       94.97    
  27    94.77       94.46       94.14       93.83       93.51       93.19       92.87       92.55       92.23       91.90    
        91.57       91.24       90.91       90.57       90.23       89.89       89.54       89.18       88.82       88.46    
        88.09       87.71       87.33       86.94       86.54       86.14       85.73       85.31       84.88       84.44    
        83.99       83.53       83.06       82.59       82.10       81.59       81.08       80.55       80.02       79.47    
        78.91       78.33       77.98       77.85       77.72       77.57       77.41       77.25       77.08       76.91    
        76.74       76.58       76.42       76.28       76.15       76.05       75.98       75.95       75.96       76.00    
        76.09       76.22       76.40       76.60       76.84       77.11       77.39       77.69       78.01       78.33    
        78.65       78.97       79.30       79.62       79.93       80.24       80.54       80.83       81.12       81.40    
        81.67       81.94       82.19       82.44       82.69       82.92       83.15       83.37       83.59       83.80    
        84.01       84.21       84.41       84.60       84.79       84.98       85.16       85.34       85.52       85.69    
        85.87       86.04       86.21       86.38       86.54       86.71       86.88       87.04       87.21       87.37    
        87.54       87.71       87.87       88.04       88.21       88.38       88.55       88.72       88.89       89.07    
        89.24       89.42       89.60       89.78       89.96       90.14       90.33       90.52       90.70       90.82    
        90.86       90.90       90.94       90.98       91.03       91.08       91.12       91.17       91.23       91.28    
        91.33       91.39       91.44       91.50       91.56       91.61       91.64       91.68       91.72       91.77    
        91.81       91.85       91.90       91.94       91.99       92.04       92.09       92.14       92.19       92.24    
        92.29       92.35       92.40       92.45       92.51       92.57       92.62       92.68       92.74       92.80    
        92.86       92.92       92.98       93.05       93.11       93.17       93.24       93.30       93.36       93.43    
        93.49       93.56       93.63       93.69       93.76       93.83       93.89       93.96       94.03       94.09    
        94.16       94.23       94.30       94.37       94.43       94.50       94.57       94.64       94.71       94.77    
  28    94.57       94.25       93.92       93.60       93.27       92.94       92.61       92.28       91.95       91.61    
        91.28       90.94       90.59       90.24       89.89       89.54       89.18       88.81       88.44       88.06    
        87.68       87.29       86.90       86.50       86.09       85.67       85.24       84.81       84.36       83.91    
        83.45       82.97       82.48       81.99       81.48       80.95       80.42       79.87       79.31       78.73    
        78.14       77.53       77.16       77.03       76.88       76.71       76.54       76.36       76.17       75.97    
        75.77       75.58       75.39       75.22       75.07       74.94       74.85       74.80       74.79       74.84    
        74.93       75.08       75.27       75.51       75.77       76.07       76.39       76.73       77.08       77.43    
        77.78       78.13       78.48       78.83       79.16       79.49       79.81       80.12       80.43       80.72    
        81.01       81.28       81.55       81.81       82.06       82.31       82.54       82.77       83.00       83.22    
        83.43       83.64       83.84       84.04       84.23       84.43       84.61       84.80       84.98       85.16    
        85.34       85.52       85.69       85.86       86.04       86.21       86.38       86.55       86.72       86.89    
        87.06       87.23       87.40       87.58       87.75       87.93       88.10       88.28       88.46       88.64    
        88.82       89.00       89.19       89.37       89.56       89.75       89.94       90.14       90.33       90.45    
        90.49       90.54       90.58       90.62       90.67       90.72       90.77       90.82       90.88       90.93    
        90.99       91.04       91.10       91.16       91.22       91.27       91.31       91.35       91.40       91.44    
        91.48       91.53       91.58       91.62       91.67       91.72       91.77       91.83       91.88       91.93    
        91.99       92.04       92.10       92.16       92.22       92.27       92.33       92.39       92.46       92.52    
        92.58       92.64       92.71       92.77       92.84       92.91       92.97       93.04       93.11       93.17    
        93.24       93.31       93.38       93.45       93.52       93.59       93.66       93.73       93.80       93.87    
        93.94       94.01       94.08       94.15       94.22       94.29       94.36       94.43       94.50       94.57    
  29    94.37       94.04       93.70       93.37       93.03       92.69       92.36       92.02       91.67       91.33    
        90.98       90.63       90.28       89.92       89.56       89.19       88.82       88.44       88.06       87.68    
        87.28       86.88       86.48       86.06       85.64       85.21       84.77       84.32       83.86       83.39    
        82.91       82.42       81.92       81.40       80.87       80.33       79.77       79.20       78.61       78.01    
        77.39       76.75       76.36       76.21       76.05       75.87       75.68       75.47       75.26       75.03    
        74.80       74.58       74.35       74.14       73.95       73.79       73.67       73.60       73.58       73.62    
        73.72       73.89       74.10       74.37       74.68       75.02       75.38       75.75       76.14       76.53    
        76.92       77.30       77.68       78.05       78.41       78.76       79.10       79.42       79.74       80.05    
        80.35       80.64       80.91       81.18       81.44       81.70       81.94       82.18       82.41       82.64    
        82.85       83.07       83.28       83.48       83.68       83.88       84.07       84.26       84.45       84.63    
        84.81       84.99       85.17       85.35       85.53       85.70       85.88       86.05       86.23       86.40    
        86.58       86.76       86.93       87.11       87.29       87.47       87.65       87.84       88.02       88.21    
        88.39       88.58       88.77       88.97       89.16       89.36       89.56       89.76       89.96       90.08    
        90.13       90.17       90.22       90.26       90.31       90.36       90.42       90.47       90.53       90.58    
        90.64       90.70       90.76       90.82       90.89       90.94       90.98       91.02       91.07       91.11    
        91.16       91.21       91.26       91.30       91.36       91.41       91.46       91.51       91.57       91.63    
        91.68       91.74       91.80       91.86       91.92       91.98       92.04       92.11       92.17       92.24    
        92.30       92.37       92.43       92.50       92.57       92.64       92.71       92.78       92.85       92.92    
        92.99       93.06       93.13       93.20       93.27       93.35       93.42       93.49       93.56       93.64    
        93.71       93.78       93.86       93.93       94.00       94.08       94.15       94.22       94.30       94.37    
  30    94.17       93.83       93.48       93.14       92.79       92.45       92.10       91.75       91.40       91.04    
        90.69       90.33       89.96       89.60       89.22       88.85       88.47       88.08       87.69       87.29    
        86.89       86.48       86.06       85.63       85.20       84.76       84.30       83.84       83.37       82.88    
        82.39       81.88       81.36       80.83       80.28       79.72       79.14       78.54       77.93       77.30    
        76.65       75.98       75.57       75.41       75.24       75.04       74.83       74.60       74.35       74.10    
        73.83       73.57       73.30       73.05       72.81       72.61       72.45       72.35       72.31       72.34    
        72.45       72.64       72.89       73.20       73.55       73.94       74.35       74.77       75.20       75.63    
        76.05       76.47       76.88       77.27       77.66       78.03       78.39       78.73       79.07       79.39    
        79.70       80.00       80.29       80.57       80.84       81.10       81.35       81.59       81.83       82.06    
[...]
        60.59       60.57       60.55       60.53       60.51       60.49       60.47       60.45       60.44       60.42    
        60.40       60.38       60.36       60.35       60.33       60.31       60.29       60.27       60.26       60.24    
        60.22       60.21       60.19       60.17       60.16       60.14       60.12       60.11       60.09       60.08    
        60.06       60.05       60.04       60.02       60.01       60.00       59.99       59.98       59.97       59.96    
        59.96       59.95       59.95       59.94       59.94       59.94       59.93       59.93       59.93       59.94    
        59.94       59.94       59.94       59.95       59.95       59.96       59.97       59.97       59.98       59.99    
        59.99       60.00       60.01       60.01       60.02       60.03       60.04       60.05       60.05       60.06    
        60.07       60.08       60.09       60.09       60.10       60.11       60.12       60.13       60.14       60.14    
        60.15       60.16       60.17       60.18       60.19       60.19       60.20       60.21       60.22       60.23    
        60.24       60.25       60.26       60.26       60.27       60.28       60.29       60.30       60.31       60.32    
        60.33       60.34       60.35       60.36       60.37       60.38       60.39       60.40       60.40       60.41    
        60.42       60.43       60.44       60.45       60.47       60.48       60.49       60.50       60.51       60.52    
        60.53       60.54       60.55       60.56       60.57       60.59       60.60       60.62       60.64       60.65    
        60.67       60.68       60.70       60.72       60.73       60.75       60.76       60.78       60.79       60.81    
        60.82       60.84       60.85       60.87       60.88       60.89       60.91       60.92       60.94       60.95    
        60.96       60.98       60.99       61.00       61.02       61.03       61.04       61.05       61.07       61.08    
        61.09       61.11       61.12       61.13       61.14       61.16       61.17       61.18       61.19       61.21    
 195    61.01       60.99       60.97       60.95       60.93       60.91       60.90       60.88       60.86       60.84    
        60.83       60.81       60.79       60.77       60.76       60.74       60.72       60.70       60.69       60.67    
        60.65       60.64       60.62       60.60       60.59       60.57       60.55       60.54       60.52       60.50    
        60.49       60.47       60.46       60.44       60.43       60.41       60.39       60.38       60.36       60.35    
        60.33       60.32       60.30       60.29       60.27       60.26       60.24       60.23       60.21       60.20    
        60.19       60.17       60.16       60.14       60.13       60.12       60.10       60.09       60.08       60.07    
        60.05       60.04       60.03       60.02       60.01       60.00       59.99       59.99       59.98       59.97    
        59.97       59.96       59.96       59.95       59.95       59.95       59.95       59.95       59.95       59.95    
        59.95       59.95       59.95       59.96       59.96       59.97       59.97       59.98       59.98       59.99    
        59.99       60.00       60.01       60.01       60.02       60.03       60.03       60.04       60.05       60.05    
        60.06       60.07       60.07       60.08       60.09       60.09       60.10       60.11       60.11       60.12    
        60.13       60.13       60.14       60.15       60.16       60.16       60.17       60.18       60.18       60.19    
        60.20       60.21       60.21       60.22       60.23       60.24       60.24       60.25       60.26       60.27    
        60.27       60.28       60.29       60.30       60.31       60.31       60.32       60.33       60.34       60.35    
        60.35       60.36       60.37       60.38       60.39       60.40       60.40       60.41       60.42       60.43    
        60.44       60.45       60.46       60.46       60.47       60.49       60.50       60.52       60.53       60.54    
        60.56       60.57       60.58       60.60       60.61       60.62       60.63       60.65       60.66       60.67    
        60.68       60.70       60.71       60.72       60.73       60.74       60.76       60.77       60.78       60.79    
        60.80       60.81       60.82       60.84       60.85       60.86       60.87       60.88       60.89       60.90    
        60.91       60.92       60.93       60.94       60.95       60.96       60.97       60.98       60.99       61.01    
 196    60.80       60.79       60.78       60.76       60.75       60.73       60.72       60.70       60.69       60.67    
        60.66       60.65       60.63       60.62       60.60       60.59       60.58       60.56       60.55       60.54    
        60.52       60.51       60.49       60.48       60.47       60.46       60.44       60.43       60.42       60.40    
        60.39       60.38       60.37       60.35       60.34       60.33       60.32       60.30       60.29       60.28    
        60.27       60.25       60.24       60.23       60.22       60.21       60.20       60.18       60.17       60.16    
        60.15       60.14       60.13       60.12       60.10       60.09       60.08       60.07       60.06       60.05    
        60.04       60.03       60.03       60.02       60.01       60.00       60.00       59.99       59.98       59.98    
        59.97       59.97       59.97       59.96       59.96       59.96       59.96       59.96       59.96       59.96    
        59.96       59.96       59.96       59.97       59.97       59.97       59.98       59.98       59.99       59.99    
        60.00       60.00       60.00       60.01       60.02       60.02       60.03       60.03       60.04       60.04    
        60.05       60.05       60.06       60.06       60.07       60.07       60.08       60.09       60.09       60.10    
        60.10       60.11       60.11       60.12       60.12       60.13       60.14       60.14       60.15       60.15    
        60.16       60.16       60.17       60.18       60.18       60.19       60.19       60.20       60.21       60.21    
        60.22       60.23       60.23       60.24       60.24       60.25       60.26       60.26       60.27       60.28    
        60.28       60.29       60.30       60.30       60.31       60.32       60.32       60.33       60.34       60.34    
        60.35       60.36       60.36       60.37       60.38       60.39       60.40       60.41       60.42       60.43    
        60.45       60.46       60.47       60.48       60.49       60.50       60.51       60.52       60.53       60.54    
        60.55       60.56       60.57       60.58       60.59       60.60       60.60       60.61       60.62       60.63    
        60.64       60.65       60.66       60.67       60.68       60.69       60.69       60.70       60.71       60.72    
        60.73       60.74       60.75       60.75       60.76       60.77       60.78       60.79       60.80       60.80    
 197    60.60       60.59       60.58       60.57       60.56       60.55       60.54       60.53       60.52       60.51    
        60.50       60.48       60.47       60.46       60.45       60.44       60.43       60.42       60.41       60.40    
        60.39       60.38       60.37       60.36       60.35       60.34       60.33       60.32       60.31       60.30    
        60.29       60.28       60.27       60.26       60.26       60.25       60.24       60.23       60.22       60.21    
        60.20       60.19       60.18       60.17       60.16       60.16       60.15       60.14       60.13       60.12    
        60.11       60.10       60.09       60.09       60.08       60.07       60.06       60.05       60.05       60.04    
        60.03       60.03       60.02       60.01       60.01       60.00       60.00       59.99       59.99       59.98    
        59.98       59.98       59.97       59.97       59.97       59.97       59.97       59.97       59.97       59.97    
        59.97       59.97       59.97       59.98       59.98       59.98       59.98       59.99       59.99       59.99    
        60.00       60.00       60.00       60.01       60.01       60.02       60.02       60.02       60.03       60.03    
        60.04       60.04       60.04       60.05       60.05       60.06       60.06       60.06       60.07       60.07    
        60.08       60.08       60.08       60.09       60.09       60.10       60.10       60.11       60.11       60.11    
        60.12       60.12       60.13       60.13       60.14       60.14       60.15       60.15       60.15       60.16    
        60.16       60.17       60.17       60.18       60.18       60.19       60.19       60.20       60.20       60.21    
        60.21       60.22       60.22       60.23       60.23       60.24       60.24       60.25       60.25       60.26    
        60.26       60.27       60.27       60.28       60.28       60.29       60.30       60.31       60.32       60.33    
        60.33       60.34       60.35       60.36       60.37       60.37       60.38       60.39       60.40       60.40    
        60.41       60.42       60.43       60.43       60.44       60.45       60.45       60.46       60.47       60.47    
        60.48       60.49       60.49       60.50       60.51       60.51       60.52       60.53       60.53       60.54    
        60.55       60.55       60.56       60.57       60.57       60.58       60.58       60.59       60.60       60.60    
 198    60.40       60.39       60.39       60.38       60.37       60.37       60.36       60.35       60.34       60.34    
        60.33       60.32       60.32       60.31       60.30       60.30       60.29       60.28       60.27       60.27    
        60.26       60.25       60.25       60.24       60.23       60.23       60.22       60.21       60.21       60.20    
        60.20       60.19       60.18       60.18       60.17       60.16       60.16       60.15       60.15       60.14    
        60.13       60.13       60.12       60.12       60.11       60.10       60.10       60.09       60.09       60.08    
        60.07       60.07       60.06       60.06       60.05       60.05       60.04       60.04       60.03       60.03    
        60.02       60.02       60.01       60.01       60.01       60.00       60.00       60.00       59.99       59.99    
        59.99       59.99       59.98       59.98       59.98       59.98       59.98       59.98       59.98       59.98    
        59.98       59.98       59.98       59.98       59.99       59.99       59.99       59.99       59.99       60.00    
        60.00       60.00       60.00       60.01       60.01       60.01       60.01       60.02       60.02       60.02    
        60.02       60.03       60.03       60.03       60.03       60.04       60.04       60.04       60.05       60.05    
        60.05       60.05       60.06       60.06       60.06       60.06       60.07       60.07       60.07       60.08    
        60.08       60.08       60.09       60.09       60.09       60.09       60.10       60.10       60.10       60.11    
        60.11       60.11       60.12       60.12       60.12       60.13       60.13       60.13       60.14       60.14    
        60.14       60.15       60.15       60.15       60.16       60.16       60.16       60.17       60.17       60.17    
        60.18       60.18       60.18       60.19       60.19       60.20       60.20       60.21       60.21       60.22    
        60.22       60.23       60.23       60.24       60.24       60.25       60.25       60.26       60.26       60.27    
        60.27       60.28       60.28       60.29       60.29       60.30       60.30       60.31       60.31       60.32    
        60.32       60.33       60.33       60.33       60.34       60.34       60.35       60.35       60.36       60.36    
        60.36       60.37       60.37       60.38       60.38       60.39       60.39       60.39       60.40       60.40    
 199    60.20       60.20       60.19       60.19       60.19       60.18       60.18       60.18       60.17       60.17    
        60.17       60.16       60.16       60.15       60.15       60.15       60.14       60.14       60.14       60.13    
        60.13       60.13       60.12       60.12       60.12       60.11       60.11       60.11       60.10       60.10    
        60.10       60.09       60.09       60.09       60.09       60.08       60.08       60.08       60.07       60.07    
        60.07       60.06       60.06       60.06       60.05       60.05       60.05       60.05       60.04       60.04    
        60.04       60.03       60.03       60.03       60.03       60.02       60.02       60.02       60.02       60.01    
        60.01       60.01       60.01       60.00       60.00       60.00       60.00       60.00       60.00       59.99    
        59.99       59.99       59.99       59.99       59.99       59.99       59.99       59.99       59.99       59.99    
        59.99       59.99       59.99       59.99       59.99       59.99       59.99       60.00       60.00       60.00    
        60.00       60.00       60.00       60.00       60.00       60.01       60.01       60.01       60.01       60.01    
        60.01       60.01       60.01       60.02       60.02       60.02       60.02       60.02       60.02       60.02    
        60.03       60.03       60.03       60.03       60.03       60.03       60.03       60.04       60.04       60.04    
        60.04       60.04       60.04       60.04       60.05       60.05       60.05       60.05       60.05       60.05    
        60.05       60.06       60.06       60.06       60.06       60.06       60.06       60.07       60.07       60.07    
        60.07       60.07       60.07       60.08       60.08       60.08       60.08       60.08       60.08       60.09    
        60.09       60.09       60.09       60.09       60.09       60.10       60.10       60.10       60.11       60.11    
        60.11       60.11       60.12       60.12       60.12       60.12       60.13       60.13       60.13       60.13    
        60.14       60.14       60.14       60.14       60.15       60.15       60.15       60.15       60.16       60.16    
        60.16       60.16       60.16       60.17       60.17       60.17       60.17       60.18       60.18       60.18    
        60.18       60.18       60.19       60.19       60.19       60.19       60.19       60.20       60.20       60.20    
 200    60.00       60.00       60.00       60.00       60.00       60.00       60.00       60.00       60.00       60.00    
        60.00       60.00       60.00       60.00       60.00       60.00       60.00       60.00       60.00       60.00    
        60.00       60.00       60.00       60.00       60.00       60.00       60.00       60.00       60.00       60.00    
        60.00       60.00       60.00       60.00       60.00       60.00       60.00       60.00       60.00       60.00    
        60.00       60.00       60.00       60.00       60.00       60.00       60.00       60.00       60.00       60.00    
        60.00       60.00       60.00       60.00       60.00       60.00       60.00       60.00       60.00       60.00    
        60.00       60.00       60.00       60.00       60.00       60.00       60.00       60.00       60.00       60.00    
        60.00       60.00       60.00       60.00       60.00       60.00       60.00       60.00       60.00       60.00    
        60.00       60.00       60.00       60.00       60.00       60.00       60.00       60.00       60.00       60.00    
        60.00       60.00       60.00       60.00       60.00       60.00       60.00       60.00       60.00       60.00    
        60.00       60.00       60.00       60.00       60.00       60.00       60.00       60.00       60.00       60.00    
        60.00       60.00       60.00       60.00       60.00       60.00       60.00       60.00       60.00       60.00    
        60.00       60.00       60.00       60.00       60.00       60.00       60.00       60.00       60.00       60.00    
        60.00       60.00       60.00       60.00       60.00       60.00       60.00       60.00       60.00       60.00    
        60.00       60.00       60.00       60.00       60.00       60.00       60.00       60.00       60.00       60.00    
        60.00       60.00       60.00       60.00       60.00       60.00       60.00       60.00       60.00       60.00    
        60.00       60.00       60.00       60.00       60.00       60.00       60.00       60.00       60.00       60.00    
        60.00       60.00       60.00       60.00       60.00       60.00       60.00       60.00       60.00       60.00    
        60.00       60.00       60.00       60.00       60.00       60.00       60.00       60.00       60.00       60.00    
        60.00       60.00       60.00       60.00       60.00       60.00       60.00       60.00       60.00       60.00    

 HEAD WILL BE SAVED ON UNIT   51 AT END OF TIME STEP   1, STRESS PERIOD    4
1
  VOLUMETRIC BUDGET FOR ENTIRE MODEL AT END OF TIME STEP  1 IN STRESS PERIOD   4
  ------------------------------------------------------------------------------

     CUMULATIVE VOLUMES      L**3       RATES FOR THIS TIME STEP      L**3/T
     ------------------                 ------------------------

           IN:                                      IN:
           ---                                      ---
             STORAGE =           0.0000               STORAGE =           0.0000
       CONSTANT HEAD =   566810368.0000         CONSTANT HEAD =      388013.6560
               WELLS =           0.0000                 WELLS =           0.0000

            TOTAL IN =   566810368.0000              TOTAL IN =      388013.6560

          OUT:                                     OUT:
          ----                                     ----
             STORAGE =           0.0000               STORAGE =           0.0000
       CONSTANT HEAD =   173124752.0000         CONSTANT HEAD =      118513.6560
               WELLS =   393685600.0000                 WELLS =      269500.0000

           TOTAL OUT =   566810368.0000             TOTAL OUT =      388013.6560

            IN - OUT =          16.0000              IN - OUT =           0.0000

 PERCENT DISCREPANCY =           0.00     PERCENT DISCREPANCY =           0.00






          TIME SUMMARY AT END OF TIME STEP   1 IN STRESS PERIOD    4
                    SECONDS     MINUTES      HOURS       DAYS        YEARS
                    -----------------------------------------------------------
   TIME STEP LENGTH 3.15533E+07 5.25888E+05  8764.8      365.20     0.99986    
 STRESS PERIOD TIME 3.15533E+07 5.25888E+05  8764.8      365.20     0.99986    
         TOTAL TIME 1.26213E+08 2.10355E+06  35059.      1460.8      3.9995    
1
1
                            STRESS PERIOD NO.    5, LENGTH =   365.2000    
                            -----------------------------------------------

                              NUMBER OF TIME STEPS =     1

                               MULTIPLIER FOR DELT =     1.000

                            INITIAL TIME STEP SIZE =   365.2000    

 WELL NO.  LAYER   ROW   COL   STRESS RATE         
 --------------------------------------------------

 FILE UNIT   20 : ERROR CONVERTING "#" TO AN INTEGER IN LINE:
          4         0 # stress period 6                                                                                                                                                                  
