                                  MODFLOW-2000
      U.S. GEOLOGICAL SURVEY MODULAR FINITE-DIFFERENCE GROUND-WATER FLOW MODEL
                    VERSION 1.19.01 03/25/2010 CHPRC Build 7


 This model run produced both GLOBAL and LIST files.  This is the LIST file.

 
 # BAS6 package for  MODFLOW-2000, generated by Flopy.                           
 THE FREE FORMAT OPTION HAS BEEN SELECTED
    1 LAYERS        50 ROWS        50 COLUMNS
   10 STRESS PERIOD(S) IN SIMULATION

 BAS6 -- BASIC PACKAGE, VERSION 6, 1/11/2000 INPUT READ FROM UNIT   13
          5 ELEMENTS IN IR ARRAY ARE USED BY BAS

 WEL6 -- WELL PACKAGE, VERSION 6, 1/11/2000 INPUT READ FROM UNIT   20
 # WEL package for  MODFLOW-2000, generated by Flopy.
 No named parameters
 MAXIMUM OF      4 ACTIVE WELLS AT ONE TIME
 CELL-BY-CELL FLOWS WILL BE SAVED ON UNIT   53
         16 ELEMENTS IN RX ARRAY ARE USED BY WEL

         16  ELEMENTS OF RX ARRAY USED OUT OF         16
          0  ELEMENTS OF RZ ARRAY USED OUT OF          1
          5  ELEMENTS OF IR ARRAY USED OUT OF          5
1
 # BAS6 package for  MODFLOW-2000, generated by Flopy.                           
                                                                                 



                     BOUNDARY ARRAY FOR LAYER   1
 READING ON UNIT   13 WITH FORMAT: (50I10)             

 AQUIFER HEAD WILL BE SET TO -999.99     AT ALL NO-FLOW NODES (IBOUND=0).



                       INITIAL HEAD FOR LAYER   1
 READING ON UNIT   13 WITH FORMAT: (50E15.6)           
 # OC package for  MODFLOW-2000, generated by Flopy.

 OUTPUT CONTROL IS SPECIFIED ONLY AT TIME STEPS FOR WHICH OUTPUT IS DESIRED
 COMPACT CELL-BY-CELL BUDGET FILES WILL BE WRITTEN
 AUXILIARY DATA WILL BE SAVED IN CELL-BY-CELL BUDGET FILES
 HEAD PRINT FORMAT CODE IS   0    DRAWDOWN PRINT FORMAT CODE IS   0
 HEADS WILL BE SAVED ON UNIT   51    DRAWDOWNS WILL BE SAVED ON UNIT    0
1
                            STRESS PERIOD NO.    1, LENGTH =   365.2000    
                            -----------------------------------------------

                              NUMBER OF TIME STEPS =     1

                               MULTIPLIER FOR DELT =     1.000

                            INITIAL TIME STEP SIZE =   365.2000    

 WELL NO.  LAYER   ROW   COL   STRESS RATE         
 --------------------------------------------------
      1      1     10     15     -0.3850E+05
      2      1     18     40     -0.7700E+05
      3      1     29     24     -0.9625E+05
      4      1     42     18     -0.5775E+05

      4 WELLS
 
 SOLVING FOR HEAD 

 OUTPUT CONTROL FOR STRESS PERIOD    1   TIME STEP   1
    PRINT HEAD FOR ALL LAYERS
    PRINT BUDGET
    SAVE HEAD FOR ALL LAYERS
    SAVE BUDGET
 UBDSV2 SAVING "   CONSTANT HEAD" ON UNIT  53 AT TIME STEP  1, STRESS PERIOD   1
 UBDSV1 SAVING "FLOW RIGHT FACE " ON UNIT  53 AT TIME STEP  1, STRESS PERIOD   1
 UBDSV1 SAVING "FLOW FRONT FACE " ON UNIT  53 AT TIME STEP  1, STRESS PERIOD   1
 UBDSV4 SAVING "           WELLS" ON UNIT  53 AT TIME STEP  1, STRESS PERIOD   1
1
              HEAD IN LAYER   1 AT END OF TIME STEP   1 IN STRESS PERIOD    1
  ---------------------------------------------------------------------------

            1           2           3           4           5           6           7           8           9          10
           11          12          13          14          15          16          17          18          19          20
           21          22          23          24          25          26          27          28          29          30
           31          32          33          34          35          36          37          38          39          40
           41          42          43          44          45          46          47          48          49          50
 ........................................................................................................................
   1    100.0       100.0       100.0       100.0       100.0       100.0       100.0       100.0       100.0       100.0    
        100.0       100.0       100.0       100.0       100.0       100.0       100.0       100.0       100.0       100.0    
        100.0       100.0       100.0       100.0       100.0       100.0       100.0       100.0       100.0       100.0    
        100.0       100.0       100.0       100.0       100.0       100.0       100.0       100.0       100.0       100.0    
        100.0       100.0       100.0       100.0       100.0       100.0       100.0       100.0       100.0       100.0    
   2    99.18       98.95       98.71       98.46       98.21       97.94       97.66       97.36       97.05       96.74    
        96.42       96.24       96.21       96.21       96.25       96.33       96.45       96.60       96.76       96.93    
        97.09       97.25       97.40       97.54       97.68       97.80       97.92       98.04       98.16       98.27    
        98.39       98.51       98.59       98.61       98.64       98.68       98.71       98.73       98.76       98.79    
        98.82       98.86       98.90       98.93       98.97       99.01       99.06       99.10       99.14       99.18    
   3    98.37       97.90       97.42       96.93       96.43       95.89       95.33       94.73       94.11       93.47    
        92.83       92.46       92.39       92.38       92.46       92.63       92.88       93.18       93.52       93.86    
        94.20       94.52       94.82       95.10       95.36       95.61       95.85       96.09       96.32       96.55    
        96.78       97.02       97.17       97.22       97.28       97.35       97.41       97.46       97.52       97.58    
        97.64       97.71       97.79       97.87       97.95       98.03       98.11       98.20       98.28       98.37    
   4    97.55       96.86       96.15       95.43       94.67       93.87       93.03       92.14       91.19       90.21    
        89.21       88.62       88.50       88.47       88.58       88.85       89.25       89.74       90.27       90.80    
        91.31       91.80       92.25       92.67       93.06       93.43       93.78       94.13       94.48       94.82    
        95.17       95.53       95.74       95.83       95.92       96.02       96.11       96.18       96.27       96.36    
        96.46       96.57       96.68       96.80       96.92       97.04       97.17       97.29       97.42       97.55    
   5    96.73       95.82       94.90       93.95       92.95       91.90       90.79       89.59       88.31       86.96    
        85.55       84.72       84.51       84.42       84.55       84.94       85.54       86.25       87.01       87.76    
        88.46       89.11       89.71       90.26       90.77       91.26       91.73       92.18       92.63       93.09    
        93.55       94.02       94.31       94.42       94.54       94.68       94.80       94.90       95.01       95.14    
        95.27       95.41       95.56       95.72       95.88       96.05       96.22       96.39       96.56       96.73    
   6    95.92       94.81       93.68       92.51       91.29       90.00       88.62       87.12       85.50       83.76    
        81.89       80.75       80.38       80.16       80.26       80.81       81.70       82.73       83.77       84.76    
        85.66       86.48       87.22       87.90       88.52       89.11       89.68       90.23       90.79       91.35    
        91.92       92.50       92.87       93.00       93.16       93.33       93.48       93.61       93.75       93.91    
        94.07       94.25       94.44       94.64       94.85       95.06       95.27       95.48       95.70       95.92    
   7    95.10       93.81       92.49       91.13       89.71       88.19       86.56       84.78       82.83       80.67    
        78.29       76.75       76.13       75.58       75.51       76.36       77.71       79.18       80.58       81.84    
        82.95       83.93       84.79       85.58       86.30       86.98       87.64       88.29       88.94       89.60    
        90.27       90.97       91.40       91.57       91.75       91.96       92.14       92.30       92.47       92.66    
        92.87       93.08       93.32       93.56       93.80       94.06       94.32       94.58       94.84       95.10    
   8    94.29       92.83       91.35       89.82       88.21       86.50       84.65       82.62       80.35       77.80    
        74.88       72.87       71.79       70.52       69.84       71.41       73.61       75.72       77.53       79.07    
        80.37       81.48       82.45       83.33       84.13       84.88       85.62       86.34       87.08       87.83    
        88.61       89.42       89.92       90.11       90.33       90.57       90.79       90.97       91.18       91.40    
        91.64       91.90       92.18       92.46       92.76       93.06       93.36       93.67       93.98       94.29    
   9    93.47       91.87       90.25       88.58       86.82       84.95       82.92       80.69       78.18       75.29    
        71.88       69.40       67.63       64.88       61.93       65.83       69.61       72.53       74.77       76.54    
        77.97       79.17       80.21       81.14       82.00       82.81       83.60       84.39       85.19       86.03    
        86.91       87.83       88.41       88.63       88.89       89.17       89.41       89.63       89.86       90.12    
        90.40       90.71       91.03       91.36       91.70       92.05       92.40       92.76       93.11       93.47    
  10    92.65       90.94       89.21       87.42       85.54       83.55       81.40       79.03       76.37       73.30    
        69.64       66.86       64.48       59.43       47.16       60.38       66.45       70.03       72.49       74.34    
        75.81       77.03       78.09       79.03       79.91       80.75       81.58       82.41       83.28       84.20    
        85.17       86.21       86.86       87.12       87.42       87.74       88.02       88.26       88.53       88.82    
        89.14       89.49       89.86       90.25       90.64       91.04       91.44       91.85       92.25       92.65    
  11    91.84       90.04       88.21       86.34       84.38       82.32       80.10       77.67       74.98       71.92    
        68.35       65.77       63.99       61.21       58.22       62.08       65.79       68.64       70.81       72.51    
        73.89       75.05       76.07       76.99       77.86       78.70       79.54       80.41       81.32       82.31    
        83.37       84.53       85.28       85.58       85.92       86.28       86.60       86.86       87.16       87.49    
        87.86       88.26       88.68       89.12       89.57       90.03       90.48       90.94       91.39       91.84    
  12    91.02       89.16       87.27       85.34       83.34       81.23       78.99       76.58       73.95       71.04    
        67.79       65.61       64.49       63.19       62.45       63.92       65.99       67.94       69.61       71.01    
        72.19       73.22       74.15       75.01       75.83       76.65       77.49       78.36       79.30       80.33    
        81.48       82.78       83.64       84.00       84.39       84.80       85.15       85.44       85.76       86.13    
        86.54       87.00       87.49       87.99       88.50       89.02       89.52       90.03       90.52       91.02    
  13    90.20       88.30       86.38       84.42       82.40       80.29       78.06       75.71       73.19       70.49    
        67.63       65.83       65.18       64.61       64.46       65.16       66.30       67.52       68.68       69.71    
        70.64       71.49       72.29       73.06       73.82       74.59       75.40       76.25       77.18       78.22    
        79.43       80.88       81.94       82.38       82.84       83.30       83.68       83.98       84.32       84.71    
        85.18       85.71       86.27       86.85       87.43       88.01       88.57       89.12       89.67       90.20    
  14    89.39       87.47       85.53       83.56       81.54       79.45       77.27       75.00       72.61       70.12    
        67.58       66.12       65.80       65.60       65.63       65.97       66.52       67.18       67.86       68.53    
        69.18       69.82       70.46       71.11       71.79       72.50       73.25       74.07       74.96       75.96    
        77.14       78.67       80.15       80.74       81.30       81.81       82.19       82.49       82.82       83.23    
        83.76       84.38       85.04       85.71       86.37       87.01       87.63       88.23       88.81       89.39    
  15    88.57       86.65       84.71       82.75       80.75       78.70       76.58       74.39       72.14       69.81    
        67.44       66.18       66.10       66.07       66.13       66.32       66.60       66.96       67.38       67.83    
        68.31       68.81       69.36       69.93       70.55       71.21       71.93       72.71       73.56       74.49    
        75.55       76.77       78.25       79.15       79.81       80.34       80.71       80.96       81.23       81.62    
        82.25       83.01       83.81       84.59       85.33       86.03       86.70       87.34       87.96       88.57    
  16    87.76       85.84       83.92       81.98       80.01       78.01       75.96       73.87       71.72       69.54    
        67.34       66.19       66.14       66.13       66.19       66.33       66.55       66.84       67.18       67.56    
        67.99       68.45       68.95       69.50       70.09       70.73       71.43       72.18       73.00       73.89    
        74.85       75.89       76.94       77.78       78.44       78.95       79.27       79.42       79.52       79.78    
        80.61       81.61       82.59       83.49       84.33       85.09       85.81       86.48       87.13       87.76    
  17    86.94       85.04       83.14       81.23       79.31       77.36       75.39       73.38       71.35       69.30    
        67.24       66.17       66.13       66.12       66.16       66.27       66.44       66.66       66.93       67.26    
        67.63       68.04       68.50       69.02       69.58       70.20       70.87       71.59       72.37       73.20    
        74.08       74.98       75.85       76.60       77.22       77.69       77.93       77.91       77.65       77.37    
        78.81       80.23       81.44       82.48       83.39       84.21       84.95       85.65       86.30       86.94    
  18    86.12       84.25       82.38       80.50       78.63       76.74       74.84       72.93       71.00       69.06    
        67.12       66.12       66.07       66.06       66.08       66.15       66.26       66.43       66.64       66.91    
        67.22       67.59       68.01       68.48       69.02       69.61       70.26       70.95       71.70       72.48    
        73.29       74.09       74.87       75.56       76.15       76.59       76.79       76.63       75.82       73.23    
        77.03       79.06       80.46       81.58       82.54       83.39       84.15       84.85       85.50       86.12    
  19    85.31       83.46       81.61       79.78       77.95       76.13       74.31       72.49       70.67       68.83    
        67.00       66.05       65.99       65.95       65.95       65.97       66.04       66.15       66.30       66.51    
        66.77       67.08       67.46       67.90       68.40       68.97       69.59       70.26       70.98       71.73    
        72.49       73.25       73.97       74.64       75.22       75.70       75.98       75.99       75.77       75.53    
        77.02       78.50       79.77       80.86       81.81       82.65       83.42       84.10       84.73       85.31    
  20    84.49       82.66       80.84       79.05       77.27       75.52       73.79       72.06       70.33       68.60    
        66.86       65.95       65.88       65.82       65.78       65.76       65.77       65.82       65.91       66.06    
        66.25       66.51       66.84       67.24       67.72       68.26       68.87       69.54       70.24       70.96    
        71.70       72.43       73.13       73.79       74.39       74.93       75.37       75.58       75.75       76.09    
        77.03       78.16       79.26       80.26       81.18       82.01       82.75       83.42       84.01       84.49    
  21    83.67       81.84       80.04       78.29       76.58       74.90       73.26       71.63       70.01       68.38    
        66.73       65.85       65.77       65.68       65.59       65.52       65.47       65.45       65.48       65.55    
        65.68       65.87       66.15       66.51       66.96       67.50       68.10       68.77       69.47       70.19    
        70.92       71.64       72.34       73.00       73.61       74.19       74.72       75.12       75.51       76.03    
        76.82       77.75       78.70       79.62       80.48       81.27       81.99       82.64       83.21       83.67    
  22    82.86       81.00       79.21       77.49       75.84       74.25       72.70       71.19       69.69       68.17    
        66.62       65.78       65.66       65.53       65.38       65.25       65.13       65.05       64.99       64.98    
        65.03       65.16       65.37       65.70       66.13       66.66       67.28       67.96       68.67       69.41    
        70.15       70.87       71.58       72.25       72.89       73.48       74.04       74.56       75.08       75.68    
        76.40       77.21       78.05       78.88       79.68       80.43       81.12       81.76       82.33       82.86    
  23    82.04       80.10       78.29       76.62       75.04       73.55       72.12       70.74       69.38       68.01    
        66.57       65.74       65.58       65.38       65.17       64.96       64.77       64.60       64.46       64.36    
        64.31       64.35       64.49       64.77       65.19       65.74       66.39       67.11       67.86       68.63    
        69.39       70.13       70.85       71.54       72.19       72.82       73.42       73.99       74.58       75.21    
        75.91       76.65       77.42       78.19       78.93       79.64       80.31       80.93       81.51       82.04    
  24    81.22       79.06       77.25       75.64       74.16       72.79       71.49       70.26       69.08       67.92    
        66.68       65.81       65.54       65.24       64.95       64.66       64.39       64.13       63.89       63.68    
        63.51       63.43       63.47       63.70       64.12       64.72       65.44       66.23       67.04       67.85    
        68.64       69.41       70.15       70.86       71.53       72.18       72.80       73.42       74.04       74.68    
        75.36       76.06       76.79       77.51       78.22       78.90       79.55       80.16       80.72       81.22    
  25    80.41       78.33       76.60       75.06       73.65       72.35       71.13       69.99       68.92       67.92    
        66.98       66.10       65.54       65.09       64.68       64.31       63.94       63.58       63.22       62.86    
        62.52       62.25       62.13       62.26       62.73       63.45       64.30       65.20       66.11       66.99    
        67.83       68.64       69.40       70.13       70.82       71.49       72.13       72.76       73.40       74.04    
        74.71       75.39       76.07       76.76       77.44       78.10       78.73       79.33       79.90       80.41    
  26    79.59       77.92       76.34       74.87       73.50       72.22       71.02       69.89       68.84       67.85    
        66.94       66.12       65.44       64.86       64.36       63.90       63.44       62.97       62.47       61.93    
        61.36       60.80       60.38       60.33       60.92       61.89       62.98       64.07       65.10       66.07    
        66.97       67.82       68.61       69.35       70.06       70.74       71.39       72.04       72.67       73.32    
        73.97       74.62       75.28       75.94       76.60       77.24       77.86       78.46       79.04       79.59    
  27    78.78       77.40       75.98       74.58       73.26       72.01       70.83       69.72       68.69       67.72    
        66.81       65.99       65.24       64.55       64.00       63.48       62.96       62.39       61.76       61.03    
        60.18       59.21       58.25       57.75       58.75       60.21       61.66       62.99       64.16       65.22    
        66.17       67.05       67.86       68.61       69.33       70.01       70.67       71.31       71.95       72.58    
        73.22       73.85       74.49       75.13       75.77       76.39       77.01       77.61       78.20       78.78    
  28    77.96       76.71       75.38       74.06       72.79       71.58       70.44       69.37       68.36       67.41    
        66.52       65.67       64.83       64.12       63.61       63.08       62.51       61.88       61.15       60.26    
        59.12       57.62       55.65       53.69       56.11       58.53       60.48       62.05       63.35       64.47    
        65.46       66.35       67.16       67.92       68.63       69.31       69.96       70.60       71.22       71.85    
        72.47       73.09       73.71       74.33       74.94       75.56       76.17       76.77       77.37       77.96    
  29    77.14       75.86       74.57       73.31       72.09       70.94       69.85       68.83       67.86       66.95    
        66.08       65.23       64.39       63.72       63.23       62.71       62.13       61.47       60.70       59.72    
        58.42       56.48       53.05       45.25       53.48       57.32       59.67       61.37       62.72       63.85    
        64.84       65.72       66.52       67.26       67.96       68.63       69.27       69.89       70.51       71.11    
        71.71       72.32       72.92       73.52       74.13       74.73       75.33       75.94       76.54       77.14    
  30    76.33       75.02       73.74       72.51       71.34       70.24       69.20       68.23       67.31       66.44    
        65.61       64.80       63.99       63.36       62.90       62.39       61.83       61.19       60.44       59.52    
        58.36       56.83       54.84       52.84       55.23       57.61       59.52       61.04       62.30       63.38    
        64.32       65.17       65.94       66.66       67.33       67.98       68.60       69.20       69.79       70.38    
        70.96       71.55       72.13       72.72       73.31       73.90       74.50       75.11       75.71       76.33    
  31    75.51       74.15       72.86       71.65       70.52       69.47       68.48       67.57       66.71       65.90    
        65.13       64.38       63.63       63.05       62.61       62.13       61.60       61.01       60.34       59.57    
        58.67       57.65       56.62       56.06       56.99       58.37       59.74       60.98       62.07       63.04    
        63.90       64.69       65.41       66.09       66.73       67.35       67.94       68.52       69.09       69.65    
        70.21       70.78       71.34       71.91       72.49       73.07       73.66       74.27       74.89       75.51    
  32    74.69       73.22       71.90       70.71       69.62       68.63       67.71       66.85       66.06       65.32    
        64.62       63.95       63.29       62.78       62.37       61.92       61.43       60.91       60.35       59.75    
        59.10       58.46       57.95       57.80       58.29       59.14       60.11       61.07       61.97       62.80    
        63.56       64.27       64.94       65.56       66.16       66.74       67.30       67.85       68.39       68.93    
        69.46       70.00       70.55       71.10       71.66       72.23       72.82       73.42       74.05       74.69    
  33    73.88       72.39       71.09       69.93       68.88       67.94       67.07       66.27       65.54       64.85    
        64.21       63.61       63.06       62.60       62.16       61.73       61.30       60.86       60.41       59.96    
        59.53       59.15       58.90       58.90       59.23       59.79       60.48       61.21       61.93       62.62    
        63.28       63.90       64.49       65.06       65.61       66.14       66.66       67.18       67.69       68.20    
        68.71       69.22       69.74       70.27       70.81       71.37       71.95       72.56       73.20       73.88    
  34    73.06       71.66       70.40       69.29       68.29       67.40       66.58       65.83       65.13       64.49    
        63.89       63.34       62.83       62.37       61.95       61.55       61.17       60.81       60.47       60.16    
        59.90       59.70       59.61       59.67       59.92       60.32       60.82       61.37       61.93       62.48    
        63.03       63.56       64.08       64.58       65.07       65.56       66.04       66.52       66.99       67.47    
        67.95       68.44       68.93       69.44       69.95       70.49       71.05       71.65       72.32       73.06    
  35    72.24       70.78       69.57       68.53       67.61       66.77       66.02       65.32       64.68       64.09    
        63.54       63.02       62.55       62.11       61.71       61.35       61.03       60.74       60.51       60.32    
        60.20       60.14       60.16       60.26       60.46       60.75       61.11       61.50       61.92       62.36    
        62.80       63.23       63.67       64.11       64.55       64.98       65.42       65.86       66.30       66.74    
        67.19       67.65       68.11       68.59       69.07       69.58       70.11       70.69       71.36       72.24    
  36    71.43       70.06       68.94       67.97       67.11       66.33       65.62       64.97       64.37       63.81    
        63.28       62.80       62.34       61.92       61.54       61.20       60.91       60.67       60.49       60.38    
        60.35       60.36       60.43       60.56       60.74       60.97       61.26       61.57       61.92       62.28    
        62.65       63.04       63.43       63.83       64.23       64.63       65.04       65.46       65.88       66.30    
        66.73       67.17       67.62       68.07       68.54       69.02       69.52       70.05       70.65       71.43    
  37    70.61       69.52       68.53       67.63       66.82       66.08       65.40       64.78       64.19       63.65    
        63.14       62.67       62.22       61.81       61.43       61.09       60.80       60.58       60.42       60.34    
        60.34       60.38       60.47       60.60       60.78       61.00       61.27       61.57       61.89       62.24    
        62.60       62.97       63.35       63.73       64.12       64.51       64.91       65.32       65.73       66.15    
        66.57       67.00       67.44       67.89       68.34       68.81       69.29       69.77       70.24       70.61    
  38    69.80       68.88       68.01       67.20       66.46       65.77       65.13       64.53       63.98       63.46    
        62.97       62.51       62.07       61.66       61.28       60.93       60.63       60.41       60.28       60.23    
        60.26       60.33       60.44       60.58       60.76       60.98       61.23       61.50       61.80       62.12    
        62.45       62.79       63.15       63.51       63.87       64.24       64.62       65.01       65.40       65.80    
        66.21       66.62       67.04       67.47       67.90       68.34       68.77       69.20       69.57       69.80    
  39    68.98       68.19       67.43       66.71       66.03       65.40       64.81       64.25       63.73       63.24    
        62.77       62.32       61.89       61.48       61.09       60.72       60.39       60.16       60.05       60.03    
        60.10       60.22       60.36       60.52       60.70       60.91       61.13       61.38       61.64       61.92    
        62.22       62.52       62.83       63.15       63.48       63.82       64.17       64.52       64.89       65.26    
        65.65       66.04       66.43       66.82       67.21       67.61       67.99       68.36       68.70       68.98    
  40    68.16       67.48       66.82       66.18       65.57       65.00       64.45       63.94       63.45       62.99    
        62.55       62.12       61.70       61.28       60.87       60.46       60.07       59.77       59.73       59.79    
        59.92       60.09       60.27       60.44       60.62       60.81       61.02       61.24       61.47       61.71    
        61.97       62.24       62.51       62.80       63.09       63.39       63.70       64.02       64.36       64.72    
        65.08       65.45       65.81       66.17       66.53       66.88       67.23       67.56       67.87       68.16    
  41    67.35       66.76       66.18       65.61       65.07       64.56       64.07       63.60       63.15       62.72    
        62.31       61.90       61.50       61.09       60.65       60.18       59.65       59.13       59.33       59.53    
        59.74       59.97       60.17       60.35       60.52       60.70       60.89       61.08       61.28       61.50    
        61.72       61.95       62.18       62.43       62.68       62.94       63.22       63.51       63.83       64.17    
        64.51       64.85       65.19       65.52       65.85       66.17       66.48       66.78       67.07       67.35    
  42    66.53       66.02       65.52       65.03       64.55       64.09       63.66       63.24       62.83       62.44    
        62.06       61.69       61.31       60.91       60.48       59.95       59.21       57.77       58.91       59.35    
        59.63       59.89       60.09       60.26       60.42       60.59       60.75       60.91       61.09       61.27    
        61.45       61.65       61.84       62.05       62.27       62.49       62.72       62.98       63.26       63.61    
        63.95       64.27       64.58       64.88       65.17       65.46       65.74       66.01       66.27       66.53    
  43    65.71       65.28       64.85       64.42       64.01       63.61       63.23       62.86       62.50       62.15    
        61.81       61.47       61.13       60.77       60.39       59.96       59.46       58.98       59.20       59.44    
        59.65       59.87       60.04       60.20       60.35       60.49       60.63       60.78       60.93       61.08    
        61.24       61.40       61.57       61.74       61.93       62.11       62.31       62.52       62.75       63.07    
        63.40       63.70       63.98       64.25       64.51       64.76       65.01       65.25       65.48       65.71    
  44    64.90       64.53       64.17       63.81       63.46       63.12       62.79       62.47       62.16       61.86    
        61.56       61.26       60.97       60.66       60.35       60.02       59.70       59.47       59.49       59.58    
        59.72       59.88       60.03       60.17       60.30       60.42       60.55       60.67       60.80       60.93    
        61.07       61.21       61.36       61.51       61.66       61.83       61.99       62.17       62.35       62.60    
        62.88       63.14       63.39       63.62       63.85       64.07       64.28       64.49       64.70       64.90    
  45    64.08       63.78       63.48       63.18       62.89       62.61       62.34       62.07       61.81       61.56    
        61.31       61.06       60.81       60.56       60.31       60.07       59.86       59.72       59.68       59.72    
        59.80       59.92       60.03       60.14       60.25       60.35       60.46       60.56       60.67       60.78    
        60.90       61.02       61.14       61.26       61.39       61.53       61.67       61.81       61.96       62.15    
        62.38       62.60       62.81       63.00       63.20       63.38       63.56       63.74       63.91       64.08    
  46    63.27       63.03       62.79       62.55       62.32       62.10       61.88       61.66       61.45       61.25    
        61.05       60.85       60.65       60.46       60.27       60.10       59.95       59.85       59.81       59.82    
        59.87       59.95       60.03       60.11       60.20       60.28       60.37       60.45       60.54       60.63    
        60.72       60.82       60.91       61.02       61.12       61.23       61.34       61.45       61.56       61.71    
        61.90       62.07       62.24       62.40       62.55       62.70       62.84       62.99       63.13       63.27    
  47    62.45       62.27       62.09       61.92       61.75       61.58       61.41       61.25       61.09       60.94    
        60.79       60.64       60.50       60.36       60.22       60.10       60.00       59.93       59.90       59.89    
        59.92       59.97       60.03       60.09       60.15       60.21       60.28       60.34       60.41       60.47    
        60.54       60.61       60.69       60.76       60.84       60.92       61.00       61.09       61.17       61.28    
        61.42       61.55       61.67       61.79       61.91       62.02       62.13       62.24       62.34       62.45    
  48    61.63       61.51       61.40       61.28       61.17       61.05       60.94       60.84       60.73       60.63    
        60.53       60.43       60.33       60.24       60.16       60.08       60.02       59.97       59.95       59.94    
        59.96       59.99       60.02       60.06       60.10       60.14       60.19       60.23       60.27       60.32    
        60.36       60.41       60.46       60.51       60.56       60.62       60.67       60.73       60.78       60.85    
        60.94       61.03       61.11       61.19       61.27       61.35       61.42       61.49       61.56       61.63    
  49    60.82       60.76       60.70       60.64       60.58       60.53       60.47       60.42       60.37       60.32    
        60.26       60.22       60.17       60.12       60.08       60.04       60.01       59.99       59.98       59.98    
        59.98       59.99       60.01       60.03       60.05       60.07       60.09       60.11       60.14       60.16    
        60.18       60.21       60.23       60.26       60.28       60.31       60.34       60.36       60.39       60.43    
        60.47       60.51       60.56       60.60       60.63       60.67       60.71       60.75       60.78       60.82    
  50    60.00       60.00       60.00       60.00       60.00       60.00       60.00       60.00       60.00       60.00    
        60.00       60.00       60.00       60.00       60.00       60.00       60.00       60.00       60.00       60.00    
        60.00       60.00       60.00       60.00       60.00       60.00       60.00       60.00       60.00       60.00    
        60.00       60.00       60.00       60.00       60.00       60.00       60.00       60.00       60.00       60.00    
        60.00       60.00       60.00       60.00       60.00       60.00       60.00       60.00       60.00       60.00    

 HEAD WILL BE SAVED ON UNIT   51 AT END OF TIME STEP   1, STRESS PERIOD    1
1
  VOLUMETRIC BUDGET FOR ENTIRE MODEL AT END OF TIME STEP  1 IN STRESS PERIOD   1
  ------------------------------------------------------------------------------

     CUMULATIVE VOLUMES      L**3       RATES FOR THIS TIME STEP      L**3/T
     ------------------                 ------------------------

           IN:                                      IN:
           ---                                      ---
             STORAGE =           0.0000               STORAGE =           0.0000
       CONSTANT HEAD =   140625280.0000         CONSTANT HEAD =      385063.7190
               WELLS =           0.0000                 WELLS =           0.0000

            TOTAL IN =   140625280.0000              TOTAL IN =      385063.7190

          OUT:                                     OUT:
          ----                                     ----
             STORAGE =           0.0000               STORAGE =           0.0000
       CONSTANT HEAD =    42203868.0000         CONSTANT HEAD =      115563.7110
               WELLS =    98421400.0000                 WELLS =      269500.0000

           TOTAL OUT =   140625264.0000             TOTAL OUT =      385063.7190

            IN - OUT =          12.0000              IN - OUT =       7.8125E-03

 PERCENT DISCREPANCY =           0.00     PERCENT DISCREPANCY =           0.00






          TIME SUMMARY AT END OF TIME STEP   1 IN STRESS PERIOD    1
                    SECONDS     MINUTES      HOURS       DAYS        YEARS
                    -----------------------------------------------------------
   TIME STEP LENGTH 3.15533E+07 5.25888E+05  8764.8      365.20     0.99986    
 STRESS PERIOD TIME 3.15533E+07 5.25888E+05  8764.8      365.20     0.99986    
         TOTAL TIME 3.15533E+07 5.25888E+05  8764.8      365.20     0.99986    
1
1
                            STRESS PERIOD NO.    2, LENGTH =   365.2000    
                            -----------------------------------------------

                              NUMBER OF TIME STEPS =     1

                               MULTIPLIER FOR DELT =     1.000

                            INITIAL TIME STEP SIZE =   365.2000    

 WELL NO.  LAYER   ROW   COL   STRESS RATE         
 --------------------------------------------------
      1      1     10     15     -0.3850E+05
      2      1     18     40     -0.7700E+05
      3      1     29     24     -0.9625E+05
      4      1     42     18     -0.5775E+05

      4 WELLS
 
 SOLVING FOR HEAD 

 OUTPUT CONTROL FOR STRESS PERIOD    2   TIME STEP   1
    PRINT HEAD FOR ALL LAYERS
    PRINT BUDGET
    SAVE HEAD FOR ALL LAYERS
    SAVE BUDGET
 UBDSV2 SAVING "   CONSTANT HEAD" ON UNIT  53 AT TIME STEP  1, STRESS PERIOD   2
 UBDSV1 SAVING "FLOW RIGHT FACE " ON UNIT  53 AT TIME STEP  1, STRESS PERIOD   2
 UBDSV1 SAVING "FLOW FRONT FACE " ON UNIT  53 AT TIME STEP  1, STRESS PERIOD   2
 UBDSV4 SAVING "           WELLS" ON UNIT  53 AT TIME STEP  1, STRESS PERIOD   2
1
              HEAD IN LAYER   1 AT END OF TIME STEP   1 IN STRESS PERIOD    2
  ---------------------------------------------------------------------------

            1           2           3           4           5           6           7           8           9          10
           11          12          13          14          15          16          17          18          19          20
           21          22          23          24          25          26          27          28          29          30
           31          32          33          34          35          36          37          38          39          40
           41          42          43          44          45          46          47          48          49          50
 ........................................................................................................................
   1    100.0       100.0       100.0       100.0       100.0       100.0       100.0       100.0       100.0       100.0    
        100.0       100.0       100.0       100.0       100.0       100.0       100.0       100.0       100.0       100.0    
        100.0       100.0       100.0       100.0       100.0       100.0       100.0       100.0       100.0       100.0    
        100.0       100.0       100.0       100.0       100.0       100.0       100.0       100.0       100.0       100.0    
        100.0       100.0       100.0       100.0       100.0       100.0       100.0       100.0       100.0       100.0    
   2    99.18       98.95       98.71       98.46       98.21       97.94       97.66       97.36       97.05       96.74    
        96.42       96.24       96.21       96.21       96.25       96.33       96.45       96.60       96.76       96.93    
        97.09       97.25       97.40       97.54       97.68       97.80       97.92       98.04       98.16       98.27    
        98.39       98.51       98.59       98.61       98.64       98.68       98.71       98.73       98.76       98.79    
        98.82       98.86       98.90       98.93       98.97       99.01       99.06       99.10       99.14       99.18    
   3    98.37       97.90       97.42       96.93       96.43       95.89       95.33       94.73       94.11       93.47    
        92.83       92.46       92.39       92.38       92.46       92.63       92.88       93.18       93.52       93.86    
        94.20       94.52       94.82       95.10       95.36       95.61       95.85       96.09       96.32       96.55    
        96.78       97.02       97.17       97.22       97.28       97.35       97.41       97.46       97.52       97.58    
        97.64       97.71       97.79       97.87       97.95       98.03       98.11       98.20       98.28       98.37    
   4    97.55       96.86       96.15       95.43       94.67       93.87       93.03       92.14       91.19       90.21    
        89.21       88.62       88.50       88.47       88.58       88.85       89.25       89.74       90.27       90.80    
        91.31       91.80       92.25       92.67       93.06       93.43       93.78       94.13       94.48       94.82    
        95.17       95.53       95.74       95.83       95.92       96.02       96.11       96.18       96.27       96.36    
        96.46       96.57       96.68       96.80       96.92       97.04       97.17       97.29       97.42       97.55    
   5    96.73       95.82       94.90       93.95       92.95       91.90       90.79       89.59       88.31       86.96    
        85.55       84.72       84.51       84.42       84.55       84.94       85.54       86.25       87.01       87.76    
        88.46       89.11       89.71       90.26       90.77       91.26       91.73       92.18       92.63       93.09    
        93.55       94.02       94.31       94.42       94.54       94.68       94.80       94.90       95.01       95.14    
        95.27       95.41       95.56       95.72       95.88       96.05       96.22       96.39       96.56       96.73    
   6    95.92       94.81       93.68       92.51       91.29       90.00       88.62       87.12       85.50       83.76    
        81.89       80.75       80.38       80.16       80.26       80.81       81.70       82.73       83.77       84.76    
        85.66       86.48       87.22       87.90       88.52       89.11       89.68       90.23       90.79       91.35    
        91.92       92.50       92.87       93.00       93.16       93.33       93.48       93.61       93.75       93.91    
        94.07       94.25       94.44       94.64       94.85       95.06       95.27       95.48       95.70       95.92    
   7    95.10       93.81       92.49       91.13       89.71       88.19       86.56       84.78       82.83       80.67    
        78.29       76.75       76.13       75.58       75.51       76.36       77.71       79.18       80.58       81.84    
        82.95       83.93       84.79       85.58       86.30       86.98       87.64       88.29       88.94       89.60    
        90.27       90.97       91.40       91.57       91.75       91.96       92.14       92.30       92.47       92.66    
        92.87       93.08       93.32       93.56       93.80       94.06       94.32       94.58       94.84       95.10    
   8    94.29       92.83       91.35       89.82       88.21       86.50       84.65       82.62       80.35       77.80    
        74.88       72.87       71.79       70.52       69.84       71.41       73.61       75.72       77.53       79.07    
        80.37       81.48       82.45       83.33       84.13       84.88       85.62       86.34       87.08       87.83    
        88.61       89.42       89.92       90.11       90.33       90.57       90.79       90.97       91.18       91.40    
        91.64       91.90       92.18       92.46       92.76       93.06       93.36       93.67       93.98       94.29    
   9    93.47       91.87       90.25       88.58       86.82       84.95       82.92       80.69       78.18       75.29    
        71.88       69.40       67.63       64.88       61.93       65.83       69.61       72.53       74.77       76.54    
        77.97       79.17       80.21       81.14       82.00       82.81       83.60       84.39       85.19       86.03    
        86.91       87.83       88.41       88.63       88.89       89.17       89.41       89.63       89.86       90.12    
        90.40       90.71       91.03       91.36       91.70       92.05       92.40       92.76       93.11       93.47    
  10    92.65       90.94       89.21       87.42       85.54       83.55       81.40       79.03       76.37       73.30    
        69.64       66.86       64.48       59.43       47.16       60.38       66.45       70.03       72.49       74.34    
        75.81       77.03       78.09       79.03       79.91       80.75       81.58       82.41       83.28       84.20    
        85.17       86.21       86.86       87.12       87.42       87.74       88.02       88.26       88.53       88.82    
        89.14       89.49       89.86       90.25       90.64       91.04       91.44       91.85       92.25       92.65    
  11    91.84       90.04       88.21       86.34       84.38       82.32       80.10       77.67       74.98       71.92    
        68.35       65.77       63.99       61.21       58.22       62.08       65.79       68.64       70.81       72.51    
        73.89       75.05       76.07       76.99       77.86       78.70       79.54       80.41       81.32       82.31    
        83.37       84.53       85.28       85.58       85.92       86.28       86.60       86.86       87.16       87.49    
        87.86       88.26       88.68       89.12       89.57       90.03       90.48       90.94       91.39       91.84    
  12    91.02       89.16       87.27       85.34       83.34       81.23       78.99       76.58       73.95       71.04    
        67.79       65.61       64.49       63.19       62.45       63.92       65.99       67.94       69.61       71.01    
        72.19       73.22       74.15       75.01       75.83       76.65       77.49       78.36       79.30       80.33    
        81.48       82.78       83.64       84.00       84.39       84.80       85.15       85.44       85.76       86.13    
        86.54       87.00       87.49       87.99       88.50       89.02       89.52       90.03       90.52       91.02    
  13    90.20       88.30       86.38       84.42       82.40       80.29       78.06       75.71       73.19       70.49    
        67.63       65.83       65.18       64.61       64.46       65.16       66.30       67.52       68.68       69.71    
        70.64       71.49       72.29       73.06       73.82       74.59       75.40       76.25       77.18       78.22    
        79.43       80.88       81.94       82.38       82.84       83.30       83.68       83.98       84.32       84.71    
        85.18       85.71       86.27       86.85       87.43       88.01       88.57       89.12       89.67       90.20    
  14    89.39       87.47       85.53       83.56       81.54       79.45       77.27       75.00       72.61       70.12    
        67.58       66.12       65.80       65.60       65.63       65.97       66.52       67.18       67.86       68.53    
        69.18       69.82       70.46       71.11       71.79       72.50       73.25       74.07       74.96       75.96    
        77.14       78.67       80.15       80.74       81.30       81.81       82.19       82.49       82.82       83.23    
        83.76       84.38       85.04       85.71       86.37       87.01       87.63       88.23       88.81       89.39    
  15    88.57       86.65       84.71       82.75       80.75       78.70       76.58       74.39       72.14       69.81    
        67.44       66.18       66.10       66.07       66.13       66.32       66.60       66.96       67.38       67.83    
        68.31       68.81       69.36       69.93       70.55       71.21       71.93       72.71       73.56       74.49    
        75.55       76.77       78.25       79.15       79.81       80.34       80.71       80.96       81.23       81.62    
        82.25       83.01       83.81       84.59       85.33       86.03       86.70       87.34       87.96       88.57    
  16    87.76       85.84       83.92       81.98       80.01       78.01       75.96       73.87       71.72       69.54    
        67.34       66.19       66.14       66.13       66.19       66.33       66.55       66.84       67.18       67.56    
        67.99       68.45       68.95       69.50       70.09       70.73       71.43       72.18       73.00       73.89    
        74.85       75.89       76.94       77.78       78.44       78.95       79.27       79.42       79.52       79.78    
        80.61       81.61       82.59       83.49       84.33       85.09       85.81       86.48       87.13       87.76    
  17    86.94       85.04       83.14       81.23       79.31       77.36       75.39       73.38       71.35       69.30    
        67.24       66.17       66.13       66.12       66.16       66.27       66.44       66.66       66.93       67.26    
        67.63       68.04       68.50       69.02       69.58       70.20       70.87       71.59       72.37       73.20    
        74.08       74.98       75.85       76.60       77.22       77.69       77.93       77.91       77.65       77.37    
        78.81       80.23       81.44       82.48       83.39       84.21       84.95       85.65       86.30       86.94    
  18    86.12       84.25       82.38       80.50       78.63       76.74       74.84       72.93       71.00       69.06    
        67.12       66.12       66.07       66.06       66.08       66.15       66.26       66.43       66.64       66.91    
        67.22       67.59       68.01       68.48       69.02       69.61       70.26       70.95       71.70       72.48    
        73.29       74.09       74.87       75.56       76.15       76.59       76.79       76.63       75.82       73.23    
        77.03       79.06       80.46       81.58       82.54       83.39       84.15       84.85       85.50       86.12    
  19    85.31       83.46       81.61       79.78       77.95       76.13       74.31       72.49       70.67       68.83    
        67.00       66.05       65.99       65.95       65.95       65.97       66.04       66.15       66.30       66.51    
        66.77       67.08       67.46       67.90       68.40       68.97       69.59       70.26       70.98       71.73    
        72.49       73.25       73.97       74.64       75.22       75.70       75.98       75.99       75.77       75.53    
        77.02       78.50       79.77       80.86       81.81       82.65       83.42       84.10       84.73       85.31    
  20    84.49       82.66       80.84       79.05       77.27       75.52       73.79       72.06       70.33       68.60    
        66.86       65.95       65.88       65.82       65.78       65.76       65.77       65.82       65.91       66.06    
        66.25       66.51       66.84       67.24       67.72       68.26       68.87       69.54       70.24       70.96    
        71.70       72.43       73.13       73.79       74.39       74.93       75.37       75.58       75.75       76.09    
        77.03       78.16       79.26       80.26       81.18       82.01       82.75       83.42       84.01       84.49    
  21    83.67       81.84       80.04       78.29       76.58       74.90       73.26       71.63       70.01       68.38    
        66.73       65.85       65.77       65.68       65.59       65.52       65.47       65.45       65.48       65.55    
        65.68       65.87       66.15       66.51       66.96       67.50       68.10       68.77       69.47       70.19    
        70.92       71.64       72.34       73.00       73.61       74.19       74.72       75.12       75.51       76.03    
        76.82       77.75       78.70       79.62       80.48       81.27       81.99       82.64       83.21       83.67    
  22    82.86       81.00       79.21       77.49       75.84       74.25       72.70       71.19       69.69       68.17    
        66.62       65.78       65.66       65.53       65.38       65.25       65.13       65.05       64.99       64.98    
        65.03       65.16       65.37       65.70       66.13       66.66       67.28       67.96       68.67       69.41    
        70.15       70.87       71.58       72.25       72.89       73.48       74.04       74.56       75.08       75.68    
        76.40       77.21       78.05       78.88       79.68       80.43       81.12       81.76       82.33       82.86    
  23    82.04       80.10       78.29       76.62       75.04       73.55       72.12       70.74       69.38       68.01    
        66.57       65.74       65.58       65.38       65.17       64.96       64.77       64.60       64.46       64.36    
        64.31       64.35       64.49       64.77       65.19       65.74       66.39       67.11       67.86       68.63    
        69.39       70.13       70.85       71.54       72.19       72.82       73.42       73.99       74.58       75.21    
        75.91       76.65       77.42       78.19       78.93       79.64       80.31       80.93       81.51       82.04    
  24    81.22       79.06       77.25       75.64       74.16       72.79       71.49       70.26       69.08       67.92    
        66.68       65.81       65.54       65.24       64.95       64.66       64.39       64.13       63.89       63.68    
        63.51       63.43       63.47       63.70       64.12       64.72       65.44       66.23       67.04       67.85    
        68.64       69.41       70.15       70.86       71.53       72.18       72.80       73.42       74.04       74.68    
        75.36       76.06       76.79       77.51       78.22       78.90       79.55       80.16       80.72       81.22    
  25    80.41       78.33       76.60       75.06       73.65       72.35       71.13       69.99       68.92       67.92    
        66.98       66.10       65.54       65.09       64.68       64.31       63.94       63.58       63.22       62.86    
        62.52       62.25       62.13       62.26       62.73       63.45       64.30       65.20       66.11       66.99    
        67.83       68.64       69.40       70.13       70.82       71.49       72.13       72.76       73.40       74.04    
        74.71       75.39       76.07       76.76       77.44       78.10       78.73       79.33       79.90       80.41    
  26    79.59       77.92       76.34       74.87       73.50       72.22       71.02       69.89       68.84       67.85    
        66.94       66.12       65.44       64.86       64.36       63.90       63.44       62.97       62.47       61.93    
        61.36       60.80       60.38       60.33       60.92       61.89       62.98       64.07       65.10       66.07    
        66.97       67.82       68.61       69.35       70.06       70.74       71.39       72.04       72.67       73.32    
        73.97       74.62       75.28       75.94       76.60       77.24       77.86       78.46       79.04       79.59    
  27    78.78       77.40       75.98       74.58       73.26       72.01       70.83       69.72       68.69       67.72    
        66.81       65.99       65.24       64.55       64.00       63.48       62.96       62.39       61.76       61.03    
        60.18       59.21       58.25       57.75       58.75       60.21       61.66       62.99       64.16       65.22    
        66.17       67.05       67.86       68.61       69.33       70.01       70.67       71.31       71.95       72.58    
        73.22       73.85       74.49       75.13       75.77       76.39       77.01       77.61       78.20       78.78    
  28    77.96       76.71       75.38       74.06       72.79       71.58       70.44       69.37       68.36       67.41    
        66.52       65.67       64.83       64.12       63.61       63.08       62.51       61.88       61.15       60.26    
        59.12       57.62       55.65       53.69       56.11       58.53       60.48       62.05       63.35       64.47    
        65.46       66.35       67.16       67.92       68.63       69.31       69.96       70.60       71.22       71.85    
        72.47       73.09       73.71       74.33       74.94       75.56       76.17       76.77       77.37       77.96    
  29    77.14       75.86       74.57       73.31       72.09       70.94       69.85       68.83       67.86       66.95    
        66.08       65.23       64.39       63.72       63.23       62.71       62.13       61.47       60.70       59.72    
        58.42       56.48       53.05       45.25       53.48       57.32       59.67       61.37       62.72       63.85    
        64.84       65.72       66.52       67.26       67.96       68.63       69.27       69.89       70.51       71.11    
        71.71       72.32       72.92       73.52       74.13       74.73       75.33       75.94       76.54       77.14    
  30    76.33       75.02       73.74       72.51       71.34       70.24       69.20       68.23       67.31       66.44    
        65.61       64.80       63.99       63.36       62.90       62.39       61.83       61.19       60.44       59.52    
        58.36       56.83       54.84       52.84       55.23       57.61       59.52       61.04       62.30       63.38    
        64.32       65.17       65.94       66.66       67.33       67.98       68.60       69.20       69.79       70.38    
        70.96       71.55       72.13       72.72       73.31       73.90       74.50       75.11       75.71       76.33    
  31    75.51       74.15       72.86       71.65       70.52       69.47       68.48       67.57       66.71       65.90    
        65.13       64.38       63.63       63.05       62.61       62.13       61.60       61.01       60.34       59.57    
        58.67       57.65       56.62       56.06       56.99       58.37       59.74       60.98       62.07       63.04    
        63.90       64.69       65.41       66.09       66.73       67.35       67.94       68.52       69.09       69.65    
        70.21       70.78       71.34       71.91       72.49       73.07       73.66       74.27       74.89       75.51    
  32    74.69       73.22       71.90       70.71       69.62       68.63       67.71       66.85       66.06       65.32    
        64.62       63.95       63.29       62.78       62.37       61.92       61.43       60.91       60.35       59.75    
        59.10       58.46       57.95       57.80       58.29       59.14       60.11       61.07       61.97       62.80    
        63.56       64.27       64.94       65.56       66.16       66.74       67.30       67.85       68.39       68.93    
        69.46       70.00       70.55       71.10       71.66       72.23       72.82       73.42       74.05       74.69    
  33    73.88       72.39       71.09       69.93       68.88       67.94       67.07       66.27       65.54       64.85    
        64.21       63.61       63.06       62.60       62.16       61.73       61.30       60.86       60.41       59.96    
        59.53       59.15       58.90       58.90       59.23       59.79       60.48       61.21       61.93       62.62    
        63.28       63.90       64.49       65.06       65.61       66.14       66.66       67.18       67.69       68.20    
        68.71       69.22       69.74       70.27       70.81       71.37       71.95       72.56       73.20       73.88    
  34    73.06       71.66       70.40       69.29       68.29       67.40       66.58       65.83       65.13       64.49    
        63.89       63.34       62.83       62.37       61.95       61.55       61.17       60.81       60.47       60.16    
        59.90       59.70       59.61       59.67       59.92       60.32       60.82       61.37       61.93       62.48    
        63.03       63.56       64.08       64.58       65.07       65.56       66.04       66.52       66.99       67.47    
        67.95       68.44       68.93       69.44       69.95       70.49       71.05       71.65       72.32       73.06    
  35    72.24       70.78       69.57       68.53       67.61       66.77       66.02       65.32       64.68       64.09    
        63.54       63.02       62.55       62.11       61.71       61.35       61.03       60.74       60.51       60.32    
        60.20       60.14       60.16       60.26       60.46       60.75       61.11       61.50       61.92       62.36    
        62.80       63.23       63.67       64.11       64.55       64.98       65.42       65.86       66.30       66.74    
        67.19       67.65       68.11       68.59       69.07       69.58       70.11       70.69       71.36       72.24    
  36    71.43       70.06       68.94       67.97       67.11       66.33       65.62       64.97       64.37       63.81    
        63.28       62.80       62.34       61.92       61.54       61.20       60.91       60.67       60.49       60.38    
        60.35       60.36       60.43       60.56       60.74       60.97       61.26       61.57       61.92       62.28    
        62.65       63.04       63.43       63.83       64.23       64.63       65.04       65.46       65.88       66.30    
        66.73       67.17       67.62       68.07       68.54       69.02       69.52       70.05       70.65       71.43    
  37    70.61       69.52       68.53       67.63       66.82       66.08       65.40       64.78       64.19       63.65    
        63.14       62.67       62.22       61.81       61.43       61.09       60.80       60.58       60.42       60.34    
        60.34       60.38       60.47       60.60       60.78       61.00       61.27       61.57       61.89       62.24    
        62.60       62.97       63.35       63.73       64.12       64.51       64.91       65.32       65.73       66.15    
        66.57       67.00       67.44       67.89       68.34       68.81       69.29       69.77       70.24       70.61    
  38    69.80       68.88       68.01       67.20       66.46       65.77       65.13       64.53       63.98       63.46    
        62.97       62.51       62.07       61.66       61.28       60.93       60.63       60.41       60.28       60.23    
        60.26       60.33       60.44       60.58       60.76       60.98       61.23       61.50       61.80       62.12    
        62.45       62.79       63.15       63.51       63.87       64.24       64.62       65.01       65.40       65.80    
        66.21       66.62       67.04       67.47       67.90       68.34       68.77       69.20       69.57       69.80    
  39    68.98       68.19       67.43       66.71       66.03       65.40       64.81       64.25       63.73       63.24    
        62.77       62.32       61.89       61.48       61.09       60.72       60.39       60.16       60.05       60.03    
        60.10       60.22       60.36       60.52       60.70       60.91       61.13       61.38       61.64       61.92    
        62.22       62.52       62.83       63.15       63.48       63.82       64.17       64.52       64.89       65.26    
        65.65       66.04       66.43       66.82       67.21       67.61       67.99       68.36       68.70       68.98    
  40    68.16       67.48       66.82       66.18       65.57       65.00       64.45       63.94       63.45       62.99    
        62.55       62.12       61.70       61.28       60.87       60.46       60.07       59.77       59.73       59.79    
        59.92       60.09       60.27       60.44       60.62       60.81       61.02       61.24       61.47       61.71    
        61.97       62.24       62.51       62.80       63.09       63.39       63.70       64.02       64.36       64.72    
        65.08       65.45       65.81       66.17       66.53       66.88       67.23       67.56       67.87       68.16    
  41    67.35       66.76       66.18       65.61       65.07       64.56       64.07       63.60       63.15       62.72    
        62.31       61.90       61.50       61.09       60.65       60.18       59.65       59.13       59.33       59.53    
        59.74       59.97       60.17       60.35       60.52       60.70       60.89       61.08       61.28       61.50    
        61.72       61.95       62.18       62.43       62.68       62.94       63.22       63.51       63.83       64.17    
        64.51       64.85       65.19       65.52       65.85       66.17       66.48       66.78       67.07       67.35    
  42    66.53       66.02       65.52       65.03       64.55       64.09       63.66       63.24       62.83       62.44    
        62.06       61.69       61.31       60.91       60.48       59.95       59.21       57.77       58.91       59.35    
        59.63       59.89       60.09       60.26       60.42       60.59       60.75       60.91       61.09       61.27    
        61.45       61.65       61.84       62.05       62.27       62.49       62.72       62.98       63.26       63.61    
        63.95       64.27       64.58       64.88       65.17       65.46       65.74       66.01       66.27       66.53    
  43    65.71       65.28       64.85       64.42       64.01       63.61       63.23       62.86       62.50       62.15    
        61.81       61.47       61.13       60.77       60.39       59.96       59.46       58.98       59.20       59.44    
        59.65       59.87       60.04       60.20       60.35       60.49       60.63       60.78       60.93       61.08    
        61.24       61.40       61.57       61.74       61.93       62.11       62.31       62.52       62.75       63.07    
        63.40       63.70       63.98       64.25       64.51       64.76       65.01       65.25       65.48       65.71    
  44    64.90       64.53       64.17       63.81       63.46       63.12       62.79       62.47       62.16       61.86    
        61.56       61.26       60.97       60.66       60.35       60.02       59.70       59.47       59.49       59.58    
        59.72       59.88       60.03       60.17       60.30       60.42       60.55       60.67       60.80       60.93    
        61.07       61.21       61.36       61.51       61.66       61.83       61.99       62.17       62.35       62.60    
        62.88       63.14       63.39       63.62       63.85       64.07       64.28       64.49       64.70       64.90    
  45    64.08       63.78       63.48       63.18       62.89       62.61       62.34       62.07       61.81       61.56    
        61.31       61.06       60.81       60.56       60.31       60.07       59.86       59.72       59.68       59.72    
        59.80       59.92       60.03       60.14       60.25       60.35       60.46       60.56       60.67       60.78    
        60.90       61.02       61.14       61.26       61.39       61.53       61.67       61.81       61.96       62.15    
        62.38       62.60       62.81       63.00       63.20       63.38       63.56       63.74       63.91       64.08    
  46    63.27       63.03       62.79       62.55       62.32       62.10       61.88       61.66       61.45       61.25    
        61.05       60.85       60.65       60.46       60.27       60.10       59.95       59.85       59.81       59.82    
        59.87       59.95       60.03       60.11       60.20       60.28       60.37       60.45       60.54       60.63    
        60.72       60.82       60.91       61.02       61.12       61.23       61.34       61.45       61.56       61.71    
        61.90       62.07       62.24       62.40       62.55       62.70       62.84       62.99       63.13       63.27    
  47    62.45       62.27       62.09       61.92       61.75       61.58       61.41       61.25       61.09       60.94    
        60.79       60.64       60.50       60.36       60.22       60.10       60.00       59.93       59.90       59.89    
        59.92       59.97       60.03       60.09       60.15       60.21       60.28       60.34       60.41       60.47    
        60.54       60.61       60.69       60.76       60.84       60.92       61.00       61.09       61.17       61.28    
        61.42       61.55       61.67       61.79       61.91       62.02       62.13       62.24       62.34       62.45    
  48    61.63       61.51       61.40       61.28       61.17       61.05       60.94       60.84       60.73       60.63    
        60.53       60.43       60.33       60.24       60.16       60.08       60.02       59.97       59.95       59.94    
        59.96       59.99       60.02       60.06       60.10       60.14       60.19       60.23       60.27       60.32    
        60.36       60.41       60.46       60.51       60.56       60.62       60.67       60.73       60.78       60.85    
        60.94       61.03       61.11       61.19       61.27       61.35       61.42       61.49       61.56       61.63    
  49    60.82       60.76       60.70       60.64       60.58       60.53       60.47       60.42       60.37       60.32    
        60.26       60.22       60.17       60.12       60.08       60.04       60.01       59.99       59.98       59.98    
        59.98       59.99       60.01       60.03       60.05       60.07       60.09       60.11       60.14       60.16    
        60.18       60.21       60.23       60.26       60.28       60.31       60.34       60.36       60.39       60.43    
        60.47       60.51       60.56       60.60       60.63       60.67       60.71       60.75       60.78       60.82    
  50    60.00       60.00       60.00       60.00       60.00       60.00       60.00       60.00       60.00       60.00    
        60.00       60.00       60.00       60.00       60.00       60.00       60.00       60.00       60.00       60.00    
        60.00       60.00       60.00       60.00       60.00       60.00       60.00       60.00       60.00       60.00    
        60.00       60.00       60.00       60.00       60.00       60.00       60.00       60.00       60.00       60.00    
        60.00       60.00       60.00       60.00       60.00       60.00       60.00       60.00       60.00       60.00    

 HEAD WILL BE SAVED ON UNIT   51 AT END OF TIME STEP   1, STRESS PERIOD    2
1
  VOLUMETRIC BUDGET FOR ENTIRE MODEL AT END OF TIME STEP  1 IN STRESS PERIOD   2
  ------------------------------------------------------------------------------

     CUMULATIVE VOLUMES      L**3       RATES FOR THIS TIME STEP      L**3/T
     ------------------                 ------------------------

           IN:                                      IN:
           ---                                      ---
             STORAGE =           0.0000               STORAGE =           0.0000
       CONSTANT HEAD =   281250560.0000         CONSTANT HEAD =      385063.7190
               WELLS =           0.0000                 WELLS =           0.0000

            TOTAL IN =   281250560.0000              TOTAL IN =      385063.7190

          OUT:                                     OUT:
          ----                                     ----
             STORAGE =           0.0000               STORAGE =           0.0000
       CONSTANT HEAD =    84407736.0000         CONSTANT HEAD =      115563.7110
               WELLS =   196842800.0000                 WELLS =      269500.0000

           TOTAL OUT =   281250528.0000             TOTAL OUT =      385063.7190

            IN - OUT =          24.0000              IN - OUT =       7.8125E-03

 PERCENT DISCREPANCY =           0.00     PERCENT DISCREPANCY =           0.00






          TIME SUMMARY AT END OF TIME STEP   1 IN STRESS PERIOD    2
                    SECONDS     MINUTES      HOURS       DAYS        YEARS
                    -----------------------------------------------------------
   TIME STEP LENGTH 3.15533E+07 5.25888E+05  8764.8      365.20     0.99986    
 STRESS PERIOD TIME 3.15533E+07 5.25888E+05  8764.8      365.20     0.99986    
         TOTAL TIME 6.31066E+07 1.05178E+06  17530.      730.40      1.9997    
1
1
                            STRESS PERIOD NO.    3, LENGTH =   365.2000    
                            -----------------------------------------------

                              NUMBER OF TIME STEPS =     1

                               MULTIPLIER FOR DELT =     1.000

                            INITIAL TIME STEP SIZE =   365.2000    

 WELL NO.  LAYER   ROW   COL   STRESS RATE         
 --------------------------------------------------
      1      1     10     15     -0.3850E+05
      2      1     18     40     -0.7700E+05
      3      1     29     24     -0.9625E+05
      4      1     42     18     -0.5775E+05

      4 WELLS
 
 SOLVING FOR HEAD 

 OUTPUT CONTROL FOR STRESS PERIOD    3   TIME STEP   1
    PRINT HEAD FOR ALL LAYERS
    PRINT BUDGET
    SAVE HEAD FOR ALL LAYERS
    SAVE BUDGET
 UBDSV2 SAVING "   CONSTANT HEAD" ON UNIT  53 AT TIME STEP  1, STRESS PERIOD   3
 UBDSV1 SAVING "FLOW RIGHT FACE " ON UNIT  53 AT TIME STEP  1, STRESS PERIOD   3
 UBDSV1 SAVING "FLOW FRONT FACE " ON UNIT  53 AT TIME STEP  1, STRESS PERIOD   3
 UBDSV4 SAVING "           WELLS" ON UNIT  53 AT TIME STEP  1, STRESS PERIOD   3
1
              HEAD IN LAYER   1 AT END OF TIME STEP   1 IN STRESS PERIOD    3
  ---------------------------------------------------------------------------

            1           2           3           4           5           6           7           8           9          10
           11          12          13          14          15          16          17          18          19          20
           21          22          23          24          25          26          27          28          29          30
           31          32          33          34          35          36          37          38          39          40
           41          42          43          44          45          46          47          48          49          50
 ........................................................................................................................
   1    100.0       100.0       100.0       100.0       100.0       100.0       100.0       100.0       100.0       100.0    
        100.0       100.0       100.0       100.0       100.0       100.0       100.0       100.0       100.0       100.0    
        100.0       100.0       100.0       100.0       100.0       100.0       100.0       100.0       100.0       100.0    
        100.0       100.0       100.0       100.0       100.0       100.0       100.0       100.0       100.0       100.0    
        100.0       100.0       100.0       100.0       100.0       100.0       100.0       100.0       100.0       100.0    
   2    99.18       98.95       98.71       98.46       98.21       97.94       97.66       97.36       97.05       96.74    
        96.42       96.24       96.21       96.21       96.25       96.33       96.45       96.60       96.76       96.93    
        97.09       97.25       97.40       97.54       97.68       97.80       97.92       98.04       98.16       98.27    
        98.39       98.51       98.59       98.61       98.64       98.68       98.71       98.73       98.76       98.79    
        98.82       98.86       98.90       98.93       98.97       99.01       99.06       99.10       99.14       99.18    
   3    98.37       97.90       97.42       96.93       96.43       95.89       95.33       94.73       94.11       93.47    
        92.83       92.46       92.39       92.38       92.46       92.63       92.88       93.18       93.52       93.86    
        94.20       94.52       94.82       95.10       95.36       95.61       95.85       96.09       96.32       96.55    
        96.78       97.02       97.17       97.22       97.28       97.35       97.41       97.46       97.52       97.58    
        97.64       97.71       97.79       97.87       97.95       98.03       98.11       98.20       98.28       98.37    
   4    97.55       96.86       96.15       95.43       94.67       93.87       93.03       92.14       91.19       90.21    
        89.21       88.62       88.50       88.47       88.58       88.85       89.25       89.74       90.27       90.80    
        91.31       91.80       92.25       92.67       93.06       93.43       93.78       94.13       94.48       94.82    
        95.17       95.53       95.74       95.83       95.92       96.02       96.11       96.18       96.27       96.36    
        96.46       96.57       96.68       96.80       96.92       97.04       97.17       97.29       97.42       97.55    
   5    96.73       95.82       94.90       93.95       92.95       91.90       90.79       89.59       88.31       86.96    
        85.55       84.72       84.51       84.42       84.55       84.94       85.54       86.25       87.01       87.76    
        88.46       89.11       89.71       90.26       90.77       91.26       91.73       92.18       92.63       93.09    
        93.55       94.02       94.31       94.42       94.54       94.68       94.80       94.90       95.01       95.14    
        95.27       95.41       95.56       95.72       95.88       96.05       96.22       96.39       96.56       96.73    
   6    95.92       94.81       93.68       92.51       91.29       90.00       88.62       87.12       85.50       83.76    
        81.89       80.75       80.38       80.16       80.26       80.81       81.70       82.73       83.77       84.76    
        85.66       86.48       87.22       87.90       88.52       89.11       89.68       90.23       90.79       91.35    
        91.92       92.50       92.87       93.00       93.16       93.33       93.48       93.61       93.75       93.91    
        94.07       94.25       94.44       94.64       94.85       95.06       95.27       95.48       95.70       95.92    
   7    95.10       93.81       92.49       91.13       89.71       88.19       86.56       84.78       82.83       80.67    
        78.29       76.75       76.13       75.58       75.51       76.36       77.71       79.18       80.58       81.84    
        82.95       83.93       84.79       85.58       86.30       86.98       87.64       88.29       88.94       89.60    
        90.27       90.97       91.40       91.57       91.75       91.96       92.14       92.30       92.47       92.66    
        92.87       93.08       93.32       93.56       93.80       94.06       94.32       94.58       94.84       95.10    
   8    94.29       92.83       91.35       89.82       88.21       86.50       84.65       82.62       80.35       77.80    
        74.88       72.87       71.79       70.52       69.84       71.41       73.61       75.72       77.53       79.07    
        80.37       81.48       82.45       83.33       84.13       84.88       85.62       86.34       87.08       87.83    
        88.61       89.42       89.92       90.11       90.33       90.57       90.79       90.97       91.18       91.40    
        91.64       91.90       92.18       92.46       92.76       93.06       93.36       93.67       93.98       94.29    
   9    93.47       91.87       90.25       88.58       86.82       84.95       82.92       80.69       78.18       75.29    
[...]
        65.03       65.16       65.37       65.70       66.13       66.66       67.28       67.96       68.67       69.41    
        70.15       70.87       71.58       72.25       72.89       73.48       74.04       74.56       75.08       75.68    
        76.40       77.21       78.05       78.88       79.68       80.43       81.12       81.76       82.33       82.86    
  23    82.04       80.10       78.29       76.62       75.04       73.55       72.12       70.74       69.38       68.01    
        66.57       65.74       65.58       65.38       65.17       64.96       64.77       64.60       64.46       64.36    
        64.31       64.35       64.49       64.77       65.19       65.74       66.39       67.11       67.86       68.63    
        69.39       70.13       70.85       71.54       72.19       72.82       73.42       73.99       74.58       75.21    
        75.91       76.65       77.42       78.19       78.93       79.64       80.31       80.93       81.51       82.04    
  24    81.22       79.06       77.25       75.64       74.16       72.79       71.49       70.26       69.08       67.92    
        66.68       65.81       65.54       65.24       64.95       64.66       64.39       64.13       63.89       63.68    
        63.51       63.43       63.47       63.70       64.12       64.72       65.44       66.23       67.04       67.85    
        68.64       69.41       70.15       70.86       71.53       72.18       72.80       73.42       74.04       74.68    
        75.36       76.06       76.79       77.51       78.22       78.90       79.55       80.16       80.72       81.22    
  25    80.41       78.33       76.60       75.06       73.65       72.35       71.13       69.99       68.92       67.92    
        66.98       66.10       65.54       65.09       64.68       64.31       63.94       63.58       63.22       62.86    
        62.52       62.25       62.13       62.26       62.73       63.45       64.30       65.20       66.11       66.99    
        67.83       68.64       69.40       70.13       70.82       71.49       72.13       72.76       73.40       74.04    
        74.71       75.39       76.07       76.76       77.44       78.10       78.73       79.33       79.90       80.41    
  26    79.59       77.92       76.34       74.87       73.50       72.22       71.02       69.89       68.84       67.85    
        66.94       66.12       65.44       64.86       64.36       63.90       63.44       62.97       62.47       61.93    
        61.36       60.80       60.38       60.33       60.92       61.89       62.98       64.07       65.10       66.07    
        66.97       67.82       68.61       69.35       70.06       70.74       71.39       72.04       72.67       73.32    
        73.97       74.62       75.28       75.94       76.60       77.24       77.86       78.46       79.04       79.59    
  27    78.78       77.40       75.98       74.58       73.26       72.01       70.83       69.72       68.69       67.72    
        66.81       65.99       65.24       64.55       64.00       63.48       62.96       62.39       61.76       61.03    
        60.18       59.21       58.25       57.75       58.75       60.21       61.66       62.99       64.16       65.22    
        66.17       67.05       67.86       68.61       69.33       70.01       70.67       71.31       71.95       72.58    
        73.22       73.85       74.49       75.13       75.77       76.39       77.01       77.61       78.20       78.78    
  28    77.96       76.71       75.38       74.06       72.79       71.58       70.44       69.37       68.36       67.41    
        66.52       65.67       64.83       64.12       63.61       63.08       62.51       61.88       61.15       60.26    
        59.12       57.62       55.65       53.69       56.11       58.53       60.48       62.05       63.35       64.47    
        65.46       66.35       67.16       67.92       68.63       69.31       69.96       70.60       71.22       71.85    
        72.47       73.09       73.71       74.33       74.94       75.56       76.17       76.77       77.37       77.96    
  29    77.14       75.86       74.57       73.31       72.09       70.94       69.85       68.83       67.86       66.95    
        66.08       65.23       64.39       63.72       63.23       62.71       62.13       61.47       60.70       59.72    
        58.42       56.48       53.05       45.25       53.48       57.32       59.67       61.37       62.72       63.85    
        64.84       65.72       66.52       67.26       67.96       68.63       69.27       69.89       70.51       71.11    
        71.71       72.32       72.92       73.52       74.13       74.73       75.33       75.94       76.54       77.14    
  30    76.33       75.02       73.74       72.51       71.34       70.24       69.20       68.23       67.31       66.44    
        65.61       64.80       63.99       63.36       62.90       62.39       61.83       61.19       60.44       59.52    
        58.36       56.83       54.84       52.84       55.23       57.61       59.52       61.04       62.30       63.38    
        64.32       65.17       65.94       66.66       67.33       67.98       68.60       69.20       69.79       70.38    
        70.96       71.55       72.13       72.72       73.31       73.90       74.50       75.11       75.71       76.33    
  31    75.51       74.15       72.86       71.65       70.52       69.47       68.48       67.57       66.71       65.90    
        65.13       64.38       63.63       63.05       62.61       62.13       61.60       61.01       60.34       59.57    
        58.67       57.65       56.62       56.06       56.99       58.37       59.74       60.98       62.07       63.04    
        63.90       64.69       65.41       66.09       66.73       67.35       67.94       68.52       69.09       69.65    
        70.21       70.78       71.34       71.91       72.49       73.07       73.66       74.27       74.89       75.51    
  32    74.69       73.22       71.90       70.71       69.62       68.63       67.71       66.85       66.06       65.32    
        64.62       63.95       63.29       62.78       62.37       61.92       61.43       60.91       60.35       59.75    
        59.10       58.46       57.95       57.80       58.29       59.14       60.11       61.07       61.97       62.80    
        63.56       64.27       64.94       65.56       66.16       66.74       67.30       67.85       68.39       68.93    
        69.46       70.00       70.55       71.10       71.66       72.23       72.82       73.42       74.05       74.69    
  33    73.88       72.39       71.09       69.93       68.88       67.94       67.07       66.27       65.54       64.85    
        64.21       63.61       63.06       62.60       62.16       61.73       61.30       60.86       60.41       59.96    
        59.53       59.15       58.90       58.90       59.23       59.79       60.48       61.21       61.93       62.62    
        63.28       63.90       64.49       65.06       65.61       66.14       66.66       67.18       67.69       68.20    
        68.71       69.22       69.74       70.27       70.81       71.37       71.95       72.56       73.20       73.88    
  34    73.06       71.66       70.40       69.29       68.29       67.40       66.58       65.83       65.13       64.49    
        63.89       63.34       62.83       62.37       61.95       61.55       61.17       60.81       60.47       60.16    
        59.90       59.70       59.61       59.67       59.92       60.32       60.82       61.37       61.93       62.48    
        63.03       63.56       64.08       64.58       65.07       65.56       66.04       66.52       66.99       67.47    
        67.95       68.44       68.93       69.44       69.95       70.49       71.05       71.65       72.32       73.06    
  35    72.24       70.78       69.57       68.53       67.61       66.77       66.02       65.32       64.68       64.09    
        63.54       63.02       62.55       62.11       61.71       61.35       61.03       60.74       60.51       60.32    
        60.20       60.14       60.16       60.26       60.46       60.75       61.11       61.50       61.92       62.36    
        62.80       63.23       63.67       64.11       64.55       64.98       65.42       65.86       66.30       66.74    
        67.19       67.65       68.11       68.59       69.07       69.58       70.11       70.69       71.36       72.24    
  36    71.43       70.06       68.94       67.97       67.11       66.33       65.62       64.97       64.37       63.81    
        63.28       62.80       62.34       61.92       61.54       61.20       60.91       60.67       60.49       60.38    
        60.35       60.36       60.43       60.56       60.74       60.97       61.26       61.57       61.92       62.28    
        62.65       63.04       63.43       63.83       64.23       64.63       65.04       65.46       65.88       66.30    
        66.73       67.17       67.62       68.07       68.54       69.02       69.52       70.05       70.65       71.43    
  37    70.61       69.52       68.53       67.63       66.82       66.08       65.40       64.78       64.19       63.65    
        63.14       62.67       62.22       61.81       61.43       61.09       60.80       60.58       60.42       60.34    
        60.34       60.38       60.47       60.60       60.78       61.00       61.27       61.57       61.89       62.24    
        62.60       62.97       63.35       63.73       64.12       64.51       64.91       65.32       65.73       66.15    
        66.57       67.00       67.44       67.89       68.34       68.81       69.29       69.77       70.24       70.61    
  38    69.80       68.88       68.01       67.20       66.46       65.77       65.13       64.53       63.98       63.46    
        62.97       62.51       62.07       61.66       61.28       60.93       60.63       60.41       60.28       60.23    
        60.26       60.33       60.44       60.58       60.76       60.98       61.23       61.50       61.80       62.12    
        62.45       62.79       63.15       63.51       63.87       64.24       64.62       65.01       65.40       65.80    
        66.21       66.62       67.04       67.47       67.90       68.34       68.77       69.20       69.57       69.80    
  39    68.98       68.19       67.43       66.71       66.03       65.40       64.81       64.25       63.73       63.24    
        62.77       62.32       61.89       61.48       61.09       60.72       60.39       60.16       60.05       60.03    
        60.10       60.22       60.36       60.52       60.70       60.91       61.13       61.38       61.64       61.92    
        62.22       62.52       62.83       63.15       63.48       63.82       64.17       64.52       64.89       65.26    
        65.65       66.04       66.43       66.82       67.21       67.61       67.99       68.36       68.70       68.98    
  40    68.16       67.48       66.82       66.18       65.57       65.00       64.45       63.94       63.45       62.99    
        62.55       62.12       61.70       61.28       60.87       60.46       60.07       59.77       59.73       59.79    
        59.92       60.09       60.27       60.44       60.62       60.81       61.02       61.24       61.47       61.71    
        61.97       62.24       62.51       62.80       63.09       63.39       63.70       64.02       64.36       64.72    
        65.08       65.45       65.81       66.17       66.53       66.88       67.23       67.56       67.87       68.16    
  41    67.35       66.76       66.18       65.61       65.07       64.56       64.07       63.60       63.15       62.72    
        62.31       61.90       61.50       61.09       60.65       60.18       59.65       59.13       59.33       59.53    
        59.74       59.97       60.17       60.35       60.52       60.70       60.89       61.08       61.28       61.50    
        61.72       61.95       62.18       62.43       62.68       62.94       63.22       63.51       63.83       64.17    
        64.51       64.85       65.19       65.52       65.85       66.17       66.48       66.78       67.07       67.35    
  42    66.53       66.02       65.52       65.03       64.55       64.09       63.66       63.24       62.83       62.44    
        62.06       61.69       61.31       60.91       60.48       59.95       59.21       57.77       58.91       59.35    
        59.63       59.89       60.09       60.26       60.42       60.59       60.75       60.91       61.09       61.27    
        61.45       61.65       61.84       62.05       62.27       62.49       62.72       62.98       63.26       63.61    
        63.95       64.27       64.58       64.88       65.17       65.46       65.74       66.01       66.27       66.53    
  43    65.71       65.28       64.85       64.42       64.01       63.61       63.23       62.86       62.50       62.15    
        61.81       61.47       61.13       60.77       60.39       59.96       59.46       58.98       59.20       59.44    
        59.65       59.87       60.04       60.20       60.35       60.49       60.63       60.78       60.93       61.08    
        61.24       61.40       61.57       61.74       61.93       62.11       62.31       62.52       62.75       63.07    
        63.40       63.70       63.98       64.25       64.51       64.76       65.01       65.25       65.48       65.71    
  44    64.90       64.53       64.17       63.81       63.46       63.12       62.79       62.47       62.16       61.86    
        61.56       61.26       60.97       60.66       60.35       60.02       59.70       59.47       59.49       59.58    
        59.72       59.88       60.03       60.17       60.30       60.42       60.55       60.67       60.80       60.93    
        61.07       61.21       61.36       61.51       61.66       61.83       61.99       62.17       62.35       62.60    
        62.88       63.14       63.39       63.62       63.85       64.07       64.28       64.49       64.70       64.90    
  45    64.08       63.78       63.48       63.18       62.89       62.61       62.34       62.07       61.81       61.56    
        61.31       61.06       60.81       60.56       60.31       60.07       59.86       59.72       59.68       59.72    
        59.80       59.92       60.03       60.14       60.25       60.35       60.46       60.56       60.67       60.78    
        60.90       61.02       61.14       61.26       61.39       61.53       61.67       61.81       61.96       62.15    
        62.38       62.60       62.81       63.00       63.20       63.38       63.56       63.74       63.91       64.08    
  46    63.27       63.03       62.79       62.55       62.32       62.10       61.88       61.66       61.45       61.25    
        61.05       60.85       60.65       60.46       60.27       60.10       59.95       59.85       59.81       59.82    
        59.87       59.95       60.03       60.11       60.20       60.28       60.37       60.45       60.54       60.63    
        60.72       60.82       60.91       61.02       61.12       61.23       61.34       61.45       61.56       61.71    
        61.90       62.07       62.24       62.40       62.55       62.70       62.84       62.99       63.13       63.27    
  47    62.45       62.27       62.09       61.92       61.75       61.58       61.41       61.25       61.09       60.94    
        60.79       60.64       60.50       60.36       60.22       60.10       60.00       59.93       59.90       59.89    
        59.92       59.97       60.03       60.09       60.15       60.21       60.28       60.34       60.41       60.47    
        60.54       60.61       60.69       60.76       60.84       60.92       61.00       61.09       61.17       61.28    
        61.42       61.55       61.67       61.79       61.91       62.02       62.13       62.24       62.34       62.45    
  48    61.63       61.51       61.40       61.28       61.17       61.05       60.94       60.84       60.73       60.63    
        60.53       60.43       60.33       60.24       60.16       60.08       60.02       59.97       59.95       59.94    
        59.96       59.99       60.02       60.06       60.10       60.14       60.19       60.23       60.27       60.32    
        60.36       60.41       60.46       60.51       60.56       60.62       60.67       60.73       60.78       60.85    
        60.94       61.03       61.11       61.19       61.27       61.35       61.42       61.49       61.56       61.63    
  49    60.82       60.76       60.70       60.64       60.58       60.53       60.47       60.42       60.37       60.32    
        60.26       60.22       60.17       60.12       60.08       60.04       60.01       59.99       59.98       59.98    
        59.98       59.99       60.01       60.03       60.05       60.07       60.09       60.11       60.14       60.16    
        60.18       60.21       60.23       60.26       60.28       60.31       60.34       60.36       60.39       60.43    
        60.47       60.51       60.56       60.60       60.63       60.67       60.71       60.75       60.78       60.82    
  50    60.00       60.00       60.00       60.00       60.00       60.00       60.00       60.00       60.00       60.00    
        60.00       60.00       60.00       60.00       60.00       60.00       60.00       60.00       60.00       60.00    
        60.00       60.00       60.00       60.00       60.00       60.00       60.00       60.00       60.00       60.00    
        60.00       60.00       60.00       60.00       60.00       60.00       60.00       60.00       60.00       60.00    
        60.00       60.00       60.00       60.00       60.00       60.00       60.00       60.00       60.00       60.00    

 HEAD WILL BE SAVED ON UNIT   51 AT END OF TIME STEP   1, STRESS PERIOD   10
1
  VOLUMETRIC BUDGET FOR ENTIRE MODEL AT END OF TIME STEP  1 IN STRESS PERIOD  10
  ------------------------------------------------------------------------------

     CUMULATIVE VOLUMES      L**3       RATES FOR THIS TIME STEP      L**3/T
     ------------------                 ------------------------

           IN:                                      IN:
           ---                                      ---
             STORAGE =           0.0000               STORAGE =           0.0000
       CONSTANT HEAD =  1406252800.0000         CONSTANT HEAD =      385063.7190
               WELLS =           0.0000                 WELLS =           0.0000

            TOTAL IN =  1406252800.0000              TOTAL IN =      385063.7190

          OUT:                                     OUT:
          ----                                     ----
             STORAGE =           0.0000               STORAGE =           0.0000
       CONSTANT HEAD =   422038688.0000         CONSTANT HEAD =      115563.7110
               WELLS =   984213888.0000                 WELLS =      269500.0000

           TOTAL OUT =  1406252540.0000             TOTAL OUT =      385063.7190

            IN - OUT =         224.0000              IN - OUT =       7.8125E-03

 PERCENT DISCREPANCY =           0.00     PERCENT DISCREPANCY =           0.00






          TIME SUMMARY AT END OF TIME STEP   1 IN STRESS PERIOD   10
                    SECONDS     MINUTES      HOURS       DAYS        YEARS
                    -----------------------------------------------------------
   TIME STEP LENGTH 3.15533E+07 5.25888E+05  8764.8      365.20     0.99986    
 STRESS PERIOD TIME 3.15533E+07 5.25888E+05  8764.8      365.20     0.99986    
         TOTAL TIME 3.15533E+08 5.25888E+06  87648.      3652.0      9.9986    
1
