                                  MODFLOW-2000
      U.S. GEOLOGICAL SURVEY MODULAR FINITE-DIFFERENCE GROUND-WATER FLOW MODEL
                    VERSION 1.19.01 03/25/2010 CHPRC Build 7


 This model run produced both GLOBAL and LIST files.  This is the LIST file.

 
 # BAS6 package for  MODFLOW-2000, generated by Flopy.                           
 THE FREE FORMAT OPTION HAS BEEN SELECTED
    1 LAYERS        50 ROWS        50 COLUMNS
   10 STRESS PERIOD(S) IN SIMULATION

 BAS6 -- BASIC PACKAGE, VERSION 6, 1/11/2000 INPUT READ FROM UNIT   13
          5 ELEMENTS IN IR ARRAY ARE USED BY BAS

 WEL6 -- WELL PACKAGE, VERSION 6, 1/11/2000 INPUT READ FROM UNIT   20
 # WEL package for  MODFLOW-2000, generated by Flopy.
 No named parameters
 MAXIMUM OF      4 ACTIVE WELLS AT ONE TIME
 CELL-BY-CELL FLOWS WILL BE SAVED ON UNIT   53
         16 ELEMENTS IN RX ARRAY ARE USED BY WEL

         16  ELEMENTS OF RX ARRAY USED OUT OF         16
          0  ELEMENTS OF RZ ARRAY USED OUT OF          1
          5  ELEMENTS OF IR ARRAY USED OUT OF          5
1
 # BAS6 package for  MODFLOW-2000, generated by Flopy.                           
                                                                                 



                     BOUNDARY ARRAY FOR LAYER   1
 READING ON UNIT   13 WITH FORMAT: (50I10)             

 AQUIFER HEAD WILL BE SET TO -999.99     AT ALL NO-FLOW NODES (IBOUND=0).



                       INITIAL HEAD FOR LAYER   1
 READING ON UNIT   13 WITH FORMAT: (50E15.6)           
 # OC package for  MODFLOW-2000, generated by Flopy.

 OUTPUT CONTROL IS SPECIFIED ONLY AT TIME STEPS FOR WHICH OUTPUT IS DESIRED
 COMPACT CELL-BY-CELL BUDGET FILES WILL BE WRITTEN
 AUXILIARY DATA WILL BE SAVED IN CELL-BY-CELL BUDGET FILES
 HEAD PRINT FORMAT CODE IS   0    DRAWDOWN PRINT FORMAT CODE IS   0
 HEADS WILL BE SAVED ON UNIT   51    DRAWDOWNS WILL BE SAVED ON UNIT    0
1
                            STRESS PERIOD NO.    1, LENGTH =   365.2000    
                            -----------------------------------------------

                              NUMBER OF TIME STEPS =     1

                               MULTIPLIER FOR DELT =     1.000

                            INITIAL TIME STEP SIZE =   365.2000    

 WELL NO.  LAYER   ROW   COL   STRESS RATE         
 --------------------------------------------------
      1      1     10     15     -0.3850E+05
      2      1     18     40     -0.7700E+05
      3      1     29     24     -0.9625E+05
      4      1     42     18     -0.5775E+05

      4 WELLS
 
 SOLVING FOR HEAD 

 OUTPUT CONTROL FOR STRESS PERIOD    1   TIME STEP   1
    PRINT HEAD FOR ALL LAYERS
    PRINT BUDGET
    SAVE HEAD FOR ALL LAYERS
    SAVE BUDGET
 UBDSV2 SAVING "   CONSTANT HEAD" ON UNIT  53 AT TIME STEP  1, STRESS PERIOD   1
 UBDSV1 SAVING "FLOW RIGHT FACE " ON UNIT  53 AT TIME STEP  1, STRESS PERIOD   1
 UBDSV1 SAVING "FLOW FRONT FACE " ON UNIT  53 AT TIME STEP  1, STRESS PERIOD   1
 UBDSV4 SAVING "           WELLS" ON UNIT  53 AT TIME STEP  1, STRESS PERIOD   1
1
              HEAD IN LAYER   1 AT END OF TIME STEP   1 IN STRESS PERIOD    1
  ---------------------------------------------------------------------------

            1           2           3           4           5           6           7           8           9          10
           11          12          13          14          15          16          17          18          19          20
           21          22          23          24          25          26          27          28          29          30
           31          32          33          34          35          36          37          38          39          40
           41          42          43          44          45          46          47          48          49          50
 ........................................................................................................................
   1    100.0       100.0       100.0       100.0       100.0       100.0       100.0       100.0       100.0       100.0    
        100.0       100.0       100.0       100.0       100.0       100.0       100.0       100.0       100.0       100.0    
        100.0       100.0       100.0       100.0       100.0       100.0       100.0       100.0       100.0       100.0    
        100.0       100.0       100.0       100.0       100.0       100.0       100.0       100.0       100.0       100.0    
        100.0       100.0       100.0       100.0       100.0       100.0       100.0       100.0       100.0       100.0    
   2    100.0       99.75       99.50       99.25       98.98       98.70       98.41       98.11       97.79       97.47    
        97.14       96.96       96.93       96.92       96.96       97.04       97.16       97.30       97.46       97.63    
        97.79       97.94       98.09       98.23       98.35       98.48       98.59       98.71       98.82       98.93    
        99.05       99.16       99.24       99.27       99.30       99.34       99.37       99.40       99.43       99.47    
        99.51       99.56       99.61       99.66       99.71       99.77       99.82       99.88       99.94       100.0    
   3    100.0       99.51       99.01       98.50       97.98       97.42       96.84       96.23       95.59       94.93    
        94.27       93.89       93.82       93.81       93.89       94.05       94.29       94.59       94.92       95.25    
        95.58       95.89       96.19       96.46       96.71       96.96       97.19       97.41       97.64       97.86    
        98.09       98.32       98.47       98.53       98.59       98.67       98.73       98.80       98.86       98.94    
        99.02       99.12       99.21       99.32       99.42       99.53       99.65       99.76       99.88       100.0    
   4    100.0       99.27       98.54       97.78       96.99       96.17       95.30       94.38       93.41       92.40    
        91.37       90.77       90.64       90.61       90.72       90.98       91.37       91.85       92.37       92.89    
        93.39       93.86       94.30       94.71       95.09       95.45       95.79       96.12       96.45       96.79    
        97.13       97.48       97.69       97.78       97.88       97.99       98.09       98.18       98.29       98.40    
        98.53       98.67       98.81       98.97       99.13       99.30       99.47       99.64       99.82       100.0    
   5    100.0       99.05       98.08       97.09       96.05       94.96       93.81       92.58       91.26       89.88    
        88.44       87.59       87.37       87.28       87.40       87.77       88.36       89.07       89.81       90.54    
        91.23       91.87       92.45       92.99       93.48       93.95       94.40       94.84       95.27       95.71    
        96.16       96.62       96.90       97.02       97.15       97.30       97.44       97.56       97.70       97.85    
        98.02       98.21       98.40       98.61       98.83       99.05       99.29       99.52       99.76       100.0    
   6    100.0       98.83       97.65       96.43       95.16       93.82       92.39       90.85       89.19       87.41    
        85.51       84.33       83.96       83.73       83.82       84.36       85.23       86.24       87.27       88.24    
        89.13       89.93       90.65       91.30       91.91       92.47       93.02       93.55       94.08       94.62    
        95.17       95.74       96.10       96.24       96.40       96.59       96.76       96.92       97.09       97.29    
        97.50       97.74       97.98       98.25       98.52       98.81       99.10       99.40       99.70       100.0    
   7    100.0       98.64       97.26       95.83       94.35       92.77       91.09       89.26       87.25       85.05    
        82.62       81.06       80.42       79.87       79.78       80.62       81.96       83.41       84.79       86.02    
        87.11       88.07       88.91       89.67       90.37       91.02       91.65       92.27       92.89       93.52    
        94.17       94.84       95.27       95.43       95.63       95.86       96.07       96.25       96.46       96.70    
        96.96       97.25       97.55       97.87       98.21       98.55       98.91       99.27       99.63       100.0    
   8    100.0       98.46       96.90       95.30       93.62       91.84       89.92       87.83       85.51       82.90    
        79.93       77.90       76.80       75.53       74.83       76.38       78.56       80.65       82.44       83.95    
        85.23       86.31       87.26       88.10       88.87       89.59       90.29       90.98       91.68       92.40    
        93.14       93.92       94.40       94.60       94.84       95.10       95.35       95.56       95.81       96.09    
        96.40       96.74       97.10       97.48       97.88       98.29       98.71       99.14       99.57       100.0    
   9    100.0       98.31       96.59       94.83       92.99       91.04       88.93       86.63       84.06       81.12    
        77.66       75.15       73.37       70.60       67.63       71.52       75.27       78.17       80.39       82.12    
        83.53       84.70       85.71       86.60       87.42       88.19       88.94       89.69       90.46       91.25    
        92.08       92.96       93.51       93.74       94.00       94.31       94.59       94.84       95.13       95.46    
        95.82       96.21       96.63       97.07       97.54       98.01       98.50       99.00       99.50       100.0    
  10    100.0       98.18       96.34       94.44       92.47       90.38       88.15       85.70       82.98       79.85    
        76.14       73.33       70.94       65.88       53.58       66.78       72.83       76.38       78.81       80.63    
        82.06       83.25       84.27       85.18       86.02       86.81       87.60       88.39       89.20       90.06    
        90.97       91.95       92.57       92.83       93.14       93.48       93.80       94.09       94.41       94.78    
        95.20       95.65       96.13       96.65       97.18       97.73       98.29       98.86       99.43       100.0    
  11    100.0       98.08       96.13       94.13       92.06       89.89       87.57       85.06       82.29       79.18    
        75.57       72.97       71.17       68.38       65.37       69.20       72.89       75.71       77.84       79.51    
        80.85       81.97       82.95       83.83       84.65       85.45       86.24       87.05       87.91       88.82    
        89.81       90.88       91.58       91.87       92.22       92.62       92.97       93.29       93.65       94.07    
        94.54       95.05       95.61       96.20       96.81       97.44       98.07       98.71       99.36       100.0    
  12    100.0       97.99       95.97       93.90       91.76       89.53       87.18       84.67       81.96       79.00    
        75.73       73.54       72.41       71.09       70.33       71.77       73.81       75.72       77.35       78.71    
        79.85       80.84       81.72       82.53       83.31       84.09       84.87       85.68       86.55       87.50    
        88.55       89.73       90.52       90.87       91.27       91.71       92.09       92.44       92.84       93.30    
        93.83       94.42       95.06       95.73       96.43       97.13       97.85       98.56       99.28       100.0    
  13    100.0       97.94       95.85       93.73       91.55       89.30       86.94       84.47       81.87       79.13    
        76.26       74.50       73.84       73.25       73.08       73.74       74.84       76.03       77.13       78.12    
        79.00       79.81       80.55       81.27       81.99       82.71       83.46       84.26       85.12       86.07    
        87.16       88.45       89.39       89.80       90.27       90.76       91.17       91.54       91.96       92.46    
        93.06       93.74       94.47       95.24       96.03       96.82       97.62       98.41       99.21       100.0    
  14    100.0       97.89       95.77       93.62       91.42       89.16       86.83       84.41       81.92       79.38    
        76.88       75.53       75.21       74.99       74.99       75.29       75.80       76.41       77.03       77.64    
        78.24       78.83       79.42       80.02       80.65       81.31       82.01       82.77       83.59       84.51    
        85.57       86.90       88.15       88.70       89.24       89.78       90.21       90.58       91.00       91.53    
        92.21       93.00       93.85       94.73       95.62       96.51       97.39       98.26       99.13       100.0    
  15    100.0       97.87       95.73       93.56       91.35       89.10       86.79       84.43       82.02       79.61    
        77.23       76.07       75.97       75.92       75.95       76.08       76.32       76.62       76.98       77.37    
        77.79       78.24       78.73       79.26       79.83       80.44       81.11       81.84       82.62       83.49    
        84.44       85.52       86.78       87.59       88.23       88.80       89.23       89.55       89.93       90.46    
        91.25       92.20       93.20       94.22       95.22       96.20       97.17       98.12       99.06       100.0    
  16    100.0       97.86       95.71       93.53       91.33       89.09       86.81       84.49       82.14       79.78    
        77.45       76.25       76.18       76.14       76.16       76.25       76.42       76.64       76.92       77.24    
        77.61       78.01       78.46       78.96       79.50       80.10       80.75       81.46       82.23       83.05    
        83.94       84.89       85.85       86.64       87.30       87.86       88.25       88.48       88.70       89.12    
        90.13       91.33       92.55       93.72       94.84       95.91       96.96       97.99       99.00       100.0    
  17    100.0       97.86       95.71       93.54       91.34       89.12       86.87       84.58       82.27       79.94    
        77.62       76.42       76.35       76.30       76.30       76.35       76.45       76.61       76.82       77.08    
        77.39       77.74       78.15       78.61       79.13       79.71       80.34       81.03       81.77       82.56    
        83.39       84.24       85.08       85.83       86.48       87.01       87.33       87.41       87.29       87.18    
        88.82       90.47       91.94       93.26       94.49       95.66       96.78       97.87       98.94       100.0    
  18    100.0       97.86       95.72       93.56       91.39       89.19       86.96       84.70       82.41       80.10    
        77.78       76.57       76.49       76.43       76.39       76.39       76.44       76.53       76.67       76.87    
        77.11       77.42       77.78       78.21       78.70       79.25       79.87       80.54       81.26       82.02    
        82.81       83.62       84.40       85.12       85.76       86.29       86.59       86.54       85.88       83.48    
        87.50       89.78       91.47       92.91       94.22       95.44       96.62       97.76       98.89       100.0    
  19    100.0       97.88       95.75       93.61       91.46       89.28       87.07       84.84       82.57       80.26    
        77.93       76.71       76.62       76.52       76.44       76.39       76.37       76.40       76.47       76.60    
        76.78       77.03       77.35       77.74       78.21       78.74       79.34       80.00       80.71       81.46    
        82.23       83.01       83.77       84.49       85.15       85.74       86.13       86.27       86.22       86.18    
        87.92       89.67       91.25       92.69       94.02       95.28       96.50       97.68       98.85       100.0    
  20    100.0       97.90       95.79       93.68       91.55       89.40       87.22       85.01       82.76       80.46    
        78.10       76.86       76.74       76.60       76.47       76.36       76.27       76.22       76.22       76.27    
        76.39       76.58       76.85       77.20       77.64       78.16       78.76       79.41       80.12       80.87    
        81.64       82.42       83.18       83.92       84.63       85.29       85.83       86.19       86.55       87.11    
        88.32       89.75       91.18       92.57       93.89       95.17       96.41       97.62       98.81       100.0    
  21    100.0       97.92       95.84       93.76       91.66       89.55       87.41       85.23       83.00       80.70    
        78.31       77.03       76.87       76.68       76.48       76.29       76.12       75.99       75.91       75.88    
        75.93       76.05       76.26       76.58       76.99       77.51       78.11       78.78       79.50       80.26    
        81.04       81.84       82.62       83.39       84.14       84.85       85.51       86.09       86.71       87.48    
        88.57       89.83       91.16       92.48       93.79       95.07       96.32       97.56       98.78       100.0    
  22    100.0       97.95       95.90       93.85       91.79       89.72       87.63       85.51       83.32       81.04    
        78.60       77.25       77.04       76.77       76.48       76.20       75.94       75.72       75.54       75.43    
        75.38       75.42       75.57       75.85       76.25       76.77       77.39       78.08       78.84       79.63    
        80.44       81.26       82.08       82.89       83.68       84.45       85.20       85.95       86.73       87.63    
        88.69       89.87       91.13       92.41       93.69       94.97       96.24       97.50       98.75       100.0    
  23    100.0       97.98       95.96       93.94       91.93       89.91       87.89       85.84       83.74       81.52    
        79.06       77.58       77.27       76.88       76.48       76.09       75.73       75.40       75.12       74.89    
        74.74       74.69       74.77       74.99       75.39       75.93       76.59       77.33       78.14       78.97    
        79.83       80.69       81.54       82.39       83.24       84.07       84.91       85.75       86.64       87.61    
        88.69       89.84       91.07       92.32       93.60       94.88       96.16       97.44       98.72       100.0    
  24    100.0       98.01       96.02       94.04       92.07       90.11       88.17       86.23       84.27       82.24    
        79.91       78.10       77.58       77.01       76.46       75.95       75.47       75.04       74.64       74.29    
        74.01       73.83       73.80       73.98       74.37       74.97       75.71       76.53       77.40       78.30    
        79.21       80.11       81.02       81.91       82.80       83.70       84.60       85.52       86.48       87.50    
        88.59       89.76       90.97       92.22       93.50       94.79       96.09       97.39       98.70       100.0    
  25    100.0       98.02       96.04       94.08       92.13       90.21       88.31       86.44       84.60       82.77    
        80.96       79.10       77.99       77.13       76.40       75.75       75.15       74.58       74.04       73.53    
        73.07       72.70       72.49       72.57       73.02       73.73       74.61       75.57       76.55       77.54    
        78.51       79.48       80.43       81.38       82.32       83.26       84.22       85.20       86.22       87.29    
        88.42       89.59       90.82       92.08       93.37       94.68       96.00       97.33       98.66       100.0    
  26    100.0       98.01       96.03       94.07       92.12       90.19       88.30       86.43       84.61       82.82    
        81.10       79.48       78.19       77.13       76.26       75.48       74.75       74.05       73.35       72.64    
        71.93       71.26       70.76       70.66       71.23       72.20       73.32       74.47       75.60       76.69    
        77.75       78.78       79.79       80.78       81.77       82.77       83.78       84.82       85.89       87.00    
        88.16       89.37       90.62       91.90       93.21       94.55       95.90       97.26       98.63       100.0    
  27    100.0       98.00       96.01       94.04       92.08       90.15       88.25       86.39       84.57       82.81    
        81.12       79.54       78.15       76.96       76.01       75.15       74.33       73.52       72.67       71.75    
        70.75       69.67       68.62       68.07       69.04       70.51       72.01       73.40       74.69       75.89    
        77.01       78.10       79.15       80.19       81.23       82.27       83.32       84.40       85.52       86.67    
        87.86       89.10       90.38       91.69       93.03       94.40       95.78       97.18       98.59       100.0    
  28    100.0       97.98       95.96       93.96       91.98       90.04       88.12       86.26       84.44       82.68    
        80.98       79.36       77.80       76.55       75.66       74.79       73.92       73.01       72.05       70.96    
        69.66       68.03       65.98       63.96       66.36       68.79       70.79       72.44       73.87       75.14    
        76.33       77.45       78.54       79.61       80.67       81.74       82.84       83.95       85.10       86.29    
        87.52       88.79       90.10       91.45       92.82       94.23       95.65       97.09       98.54       100.0    
  29    100.0       97.93       95.87       93.83       91.82       89.85       87.91       86.03       84.20       82.44    
        80.73       79.07       77.43       76.18       75.31       74.43       73.52       72.58       71.55       70.37    
        68.89       66.82       63.30       55.43       63.65       67.51       69.92       71.71       73.19       74.50    
        75.70       76.83       77.94       79.02       80.11       81.21       82.32       83.47       84.65       85.87    
        87.14       88.44       89.79       91.17       92.59       94.04       95.51       96.99       98.49       100.0    
  30    100.0       97.88       95.77       93.68       91.63       89.61       87.65       85.75       83.91       82.14    
        80.42       78.75       77.10       75.84       74.97       74.09       73.17       72.23       71.21       70.07    
        68.73       67.06       64.97       62.91       65.28       67.69       69.66       71.29       72.69       73.96    
        75.13       76.26       77.35       78.44       79.53       80.64       81.78       82.95       84.16       85.41    
        86.71       88.05       89.44       90.86       92.33       93.82       95.34       96.88       98.44       100.0    
  31    100.0       97.81       95.64       93.49       91.39       89.33       87.34       85.41       83.56       81.78    
        80.07       78.41       76.78       75.54       74.66       73.77       72.86       71.94       70.99       69.98    
        68.89       67.72       66.59       65.97       66.88       68.29       69.74       71.09       72.34       73.51    
        74.62       75.70       76.78       77.85       78.94       80.06       81.21       82.40       83.63       84.91    
        86.24       87.62       89.05       90.52       92.03       93.58       95.16       96.76       98.38       100.0    
  32    100.0       97.73       95.48       93.27       91.10       88.99       86.95       84.99       83.13       81.35    
        79.66       78.05       76.49       75.28       74.37       73.46       72.56       71.69       70.83       69.97    
        69.12       68.33       67.71       67.51       67.98       68.87       69.91       70.99       72.06       73.11    
        74.14       75.16       76.20       77.25       78.33       79.44       80.59       81.80       83.05       84.36    
        85.72       87.14       88.61       90.13       91.70       93.31       94.95       96.62       98.31       100.0    
  33    100.0       97.66       95.34       93.06       90.83       88.68       86.60       84.62       82.73       80.96    
        79.29       77.74       76.33       75.11       74.08       73.13       72.25       71.42       70.66       69.95    
        69.30       68.77       68.42       68.36       68.68       69.28       70.05       70.91       71.81       72.73    
        73.66       74.62       75.60       76.62       77.67       78.78       79.93       81.14       82.42       83.75    
        85.15       86.61       88.13       89.70       91.33       93.01       94.72       96.46       98.23       100.0    
  34    100.0       97.59       95.21       92.87       90.59       88.39       86.27       84.27       82.37       80.59    
        78.93       77.40       76.01       74.78       73.70       72.73       71.87       71.11       70.43       69.85    
        69.38       69.03       68.83       68.84       69.08       69.52       70.10       70.78       71.53       72.33    
        73.16       74.04       74.97       75.95       76.97       78.06       79.21       80.43       81.72       83.08    
        84.51       86.01       87.58       89.22       90.92       92.66       94.46       96.28       98.14       100.0    
  35    100.0       97.50       95.03       92.61       90.26       88.00       85.85       83.80       81.89       80.10    
        78.44       76.92       75.53       74.30       73.20       72.24       71.40       70.70       70.11       69.66    
        69.33       69.12       69.04       69.10       69.29       69.62       70.06       70.59       71.20       71.88    
        72.62       73.43       74.29       75.22       76.22       77.28       78.43       79.65       80.95       82.34    
        83.80       85.35       86.98       88.68       90.45       92.28       94.16       96.08       98.03       100.0    
  36    100.0       97.43       94.89       92.41       90.00       87.70       85.50       83.43       81.50       79.70    
        78.04       76.52       75.14       73.90       72.80       71.84       71.03       70.35       69.83       69.45    
        69.22       69.11       69.09       69.16       69.34       69.61       69.98       70.43       70.97       71.58    
        72.26       73.02       73.84       74.74       75.72       76.77       77.91       79.13       80.44       81.84    
        83.33       84.91       86.57       88.31       90.13       92.01       93.96       95.94       97.96       100.0    
  37    100.0       97.37       94.78       92.24       89.79       87.45       85.23       83.15       81.20       79.40    
        77.73       76.21       74.84       73.59       72.49       71.53       70.72       70.06       69.57       69.24    
        69.10       69.02       69.01       69.08       69.25       69.51       69.86       70.30       70.81       71.41    
        72.07       72.81       73.62       74.51       75.47       76.52       77.65       78.87       80.18       81.59    
        83.08       84.67       86.35       88.11       89.95       91.87       93.84       95.87       97.92       100.0    
  38    100.0       97.28       94.60       91.99       89.48       87.09       84.83       82.72       80.76       78.95    
        77.29       75.77       74.39       73.15       72.04       71.08       70.26       69.61       69.15       68.87    
        68.75       68.66       68.65       68.71       68.87       69.11       69.43       69.83       70.32       70.87    
        71.50       72.20       72.98       73.83       74.77       75.79       76.90       78.11       79.42       80.83    
        82.35       83.98       85.70       87.51       89.42       91.42       93.49       95.62       97.80       100.0    
  39    100.0       97.16       94.36       91.64       89.04       86.58       84.28       82.14       80.17       78.35    
        76.69       75.18       73.81       72.57       71.46       70.47       69.63       68.97       68.54       68.29    
        68.14       68.03       68.01       68.06       68.19       68.40       68.68       69.04       69.47       69.98    
        70.55       71.19       71.91       72.71       73.59       74.57       75.64       76.83       78.14       79.57    
        81.13       82.80       84.59       86.50       88.52       90.65       92.89       95.21       97.59       100.0    
  40    100.0       96.99       94.03       91.18       88.47       85.93       83.57       81.40       79.41       77.60    
        75.95       74.46       73.10       71.86       70.74       69.72       68.82       68.10       67.74       67.55    
        67.42       67.32       67.29       67.33       67.44       67.62       67.86       68.18       68.56       69.01    
        69.52       70.11       70.77       71.51       72.33       73.25       74.28       75.43       76.73       78.19    
        79.78       81.51       83.37       85.37       87.51       89.79       92.20       94.73       97.34       100.0    
  41    100.0       96.76       93.59       90.57       87.72       85.09       82.67       80.47       78.48       76.68    
        75.06       73.59       72.26       71.04       69.92       68.85       67.82       66.89       66.75       66.70    
        66.62       66.53       66.50       66.53       66.62       66.77       66.98       67.25       67.58       67.97    
        68.43       68.95       69.55       70.21       70.97       71.82       72.78       73.89       75.16       76.66    
        78.31       80.09       82.02       84.10       86.36       88.79       91.40       94.16       97.05       100.0    
  42    100.0       96.46       93.02       89.77       86.77       84.03       81.55       79.34       77.36       75.59    
        74.01       72.59       71.31       70.14       69.04       67.94       66.72       64.88       65.69       65.85    
        65.78       65.69       65.65       65.66       65.73       65.85       66.03       66.26       66.54       66.88    
        67.27       67.73       68.25       68.84       69.51       70.27       71.15       72.16       73.38       74.98    
        76.70       78.53       80.51       82.66       85.02       87.61       90.44       93.48       96.69       100.0    
  43    100.0       96.06       92.26       88.74       85.55       82.70       80.18       77.97       76.02       74.31    
        72.80       71.46       70.25       69.16       68.14       67.18       66.23       65.36       65.26       65.22    
        65.08       64.98       64.93       64.93       64.98       65.08       65.22       65.42       65.66       65.95    
        66.29       66.69       67.15       67.67       68.27       68.95       69.73       70.62       71.65       73.19    
        74.98       76.83       78.82       81.01       83.46       86.20       89.26       92.62       96.24       100.0    
  44    100.0       95.50       91.24       87.38       83.98       81.03       78.50       76.33       74.46       72.84    
        71.43       70.19       69.08       68.10       67.20       66.39       65.65       65.07       64.79       64.64    
        64.50       64.40       64.34       64.33       64.37       64.45       64.58       64.74       64.95       65.21    
        65.51       65.86       66.26       66.73       67.26       67.86       68.55       69.34       70.22       71.53    
        73.20       74.98       76.92       79.11       81.60       84.48       87.78       91.52       95.64       100.0    
  45    100.0       94.70       89.81       85.55       81.96       78.96       76.47       74.39       72.64       71.15    
        69.88       68.77       67.80       66.95       66.18       65.51       64.93       64.48       64.19       64.01    
        63.87       63.76       63.70       63.69       63.72       63.78       63.88       64.02       64.20       64.41    
        64.67       64.97       65.32       65.71       66.17       66.69       67.28       67.95       68.70       69.83    
        71.33       72.96       74.79       76.89       79.37       82.32       85.85       90.02       94.81       100.0    
  46    100.0       93.49       87.76       83.07       79.33       76.38       74.02       72.12       70.56       69.26    
        68.16       67.22       66.41       65.70       65.08       64.54       64.09       63.73       63.48       63.31    
        63.18       63.08       63.02       63.01       63.02       63.07       63.15       63.27       63.41       63.58    
        63.79       64.03       64.32       64.64       65.01       65.44       65.92       66.47       67.10       68.04    
        69.32       70.74       72.37       74.31       76.67       79.60       83.28       87.91       93.57       100.0    
  47    100.0       91.50       84.68       79.62       75.93       73.19       71.12       69.50       68.21       67.16    
        66.28       65.54       64.91       64.36       63.89       63.48       63.15       62.88       62.68       62.54    
        62.44       62.35       62.30       62.29       62.30       62.33       62.39       62.48       62.59       62.72    
        62.88       63.06       63.28       63.52       63.81       64.13       64.50       64.93       65.41       66.14    
        67.16       68.31       69.66       71.31       73.39       76.11       79.77       84.78       91.55       100.0    
  48    100.0       87.82       79.83       74.82       71.57       69.35       67.76       66.56       65.63       64.89    
        64.27       63.76       63.33       62.95       62.63       62.36       62.14       61.96       61.82       61.72    
        61.65       61.59       61.55       61.54       61.55       61.57       61.61       61.67       61.74       61.83    
        61.93       62.06       62.20       62.37       62.56       62.78       63.03       63.32       63.65       64.16    
        64.86       65.68       66.65       67.87       69.47       71.68       74.91       79.90       87.86       100.0    
  49    100.0       79.96       72.01       68.25       66.18       64.88       64.00       63.36       62.87       62.48    
        62.16       61.90       61.68       61.49       61.33       61.19       61.08       60.99       60.92       60.87    
        60.83       60.80       60.78       60.78       60.78       60.79       60.81       60.84       60.87       60.92    
        60.97       61.03       61.11       61.19       61.29       61.40       61.53       61.67       61.84       62.10    
        62.46       62.88       63.40       64.05       64.94       66.23       68.30       72.04       79.97       100.0    
  50    60.00       60.00       60.00       60.00       60.00       60.00       60.00       60.00       60.00       60.00    
        60.00       60.00       60.00       60.00       60.00       60.00       60.00       60.00       60.00       60.00    
        60.00       60.00       60.00       60.00       60.00       60.00       60.00       60.00       60.00       60.00    
        60.00       60.00       60.00       60.00       60.00       60.00       60.00       60.00       60.00       60.00    
        60.00       60.00       60.00       60.00       60.00       60.00       60.00       60.00       60.00       60.00    

 HEAD WILL BE SAVED ON UNIT   51 AT END OF TIME STEP   1, STRESS PERIOD    1
1
  VOLUMETRIC BUDGET FOR ENTIRE MODEL AT END OF TIME STEP  1 IN STRESS PERIOD   1
  ------------------------------------------------------------------------------

     CUMULATIVE VOLUMES      L**3       RATES FOR THIS TIME STEP      L**3/T
     ------------------                 ------------------------

           IN:                                      IN:
           ---                                      ---
             STORAGE =           0.0000               STORAGE =           0.0000
       CONSTANT HEAD =   581659712.0000         CONSTANT HEAD =     1592715.5000
               WELLS =           0.0000                 WELLS =           0.0000

            TOTAL IN =   581659712.0000              TOTAL IN =     1592715.5000

          OUT:                                     OUT:
          ----                                     ----
             STORAGE =           0.0000               STORAGE =           0.0000
       CONSTANT HEAD =   483238304.0000         CONSTANT HEAD =     1323215.5000
               WELLS =    98421400.0000                 WELLS =      269500.0000

           TOTAL OUT =   581659712.0000             TOTAL OUT =     1592715.5000

            IN - OUT =           8.0000              IN - OUT =           0.0000

 PERCENT DISCREPANCY =           0.00     PERCENT DISCREPANCY =           0.00






          TIME SUMMARY AT END OF TIME STEP   1 IN STRESS PERIOD    1
                    SECONDS     MINUTES      HOURS       DAYS        YEARS
                    -----------------------------------------------------------
   TIME STEP LENGTH 3.15533E+07 5.25888E+05  8764.8      365.20     0.99986    
 STRESS PERIOD TIME 3.15533E+07 5.25888E+05  8764.8      365.20     0.99986    
         TOTAL TIME 3.15533E+07 5.25888E+05  8764.8      365.20     0.99986    
1
1
                            STRESS PERIOD NO.    2, LENGTH =   365.2000    
                            -----------------------------------------------

                              NUMBER OF TIME STEPS =     1

                               MULTIPLIER FOR DELT =     1.000

                            INITIAL TIME STEP SIZE =   365.2000    

 WELL NO.  LAYER   ROW   COL   STRESS RATE         
 --------------------------------------------------
      1      1     10     15     -0.3850E+05
      2      1     18     40     -0.7700E+05
      3      1     29     24     -0.9625E+05
      4      1     42     18     -0.5775E+05

      4 WELLS
 
 SOLVING FOR HEAD 

 OUTPUT CONTROL FOR STRESS PERIOD    2   TIME STEP   1
    PRINT HEAD FOR ALL LAYERS
    PRINT BUDGET
    SAVE HEAD FOR ALL LAYERS
    SAVE BUDGET
 UBDSV2 SAVING "   CONSTANT HEAD" ON UNIT  53 AT TIME STEP  1, STRESS PERIOD   2
 UBDSV1 SAVING "FLOW RIGHT FACE " ON UNIT  53 AT TIME STEP  1, STRESS PERIOD   2
 UBDSV1 SAVING "FLOW FRONT FACE " ON UNIT  53 AT TIME STEP  1, STRESS PERIOD   2
 UBDSV4 SAVING "           WELLS" ON UNIT  53 AT TIME STEP  1, STRESS PERIOD   2
1
              HEAD IN LAYER   1 AT END OF TIME STEP   1 IN STRESS PERIOD    2
  ---------------------------------------------------------------------------

            1           2           3           4           5           6           7           8           9          10
           11          12          13          14          15          16          17          18          19          20
           21          22          23          24          25          26          27          28          29          30
           31          32          33          34          35          36          37          38          39          40
           41          42          43          44          45          46          47          48          49          50
 ........................................................................................................................
   1    100.0       100.0       100.0       100.0       100.0       100.0       100.0       100.0       100.0       100.0    
        100.0       100.0       100.0       100.0       100.0       100.0       100.0       100.0       100.0       100.0    
        100.0       100.0       100.0       100.0       100.0       100.0       100.0       100.0       100.0       100.0    
        100.0       100.0       100.0       100.0       100.0       100.0       100.0       100.0       100.0       100.0    
        100.0       100.0       100.0       100.0       100.0       100.0       100.0       100.0       100.0       100.0    
   2    100.0       99.75       99.50       99.25       98.98       98.70       98.41       98.11       97.79       97.47    
        97.14       96.96       96.93       96.92       96.96       97.04       97.16       97.30       97.46       97.63    
        97.79       97.94       98.09       98.23       98.35       98.48       98.59       98.71       98.82       98.93    
        99.05       99.16       99.24       99.27       99.30       99.34       99.37       99.40       99.43       99.47    
        99.51       99.56       99.61       99.66       99.71       99.77       99.82       99.88       99.94       100.0    
   3    100.0       99.51       99.01       98.50       97.98       97.42       96.84       96.23       95.59       94.93    
        94.27       93.89       93.82       93.81       93.89       94.05       94.29       94.59       94.92       95.25    
        95.58       95.89       96.19       96.46       96.71       96.96       97.19       97.41       97.64       97.86    
        98.09       98.32       98.47       98.53       98.59       98.67       98.73       98.80       98.86       98.94    
        99.02       99.12       99.21       99.32       99.42       99.53       99.65       99.76       99.88       100.0    
   4    100.0       99.27       98.54       97.78       96.99       96.17       95.30       94.38       93.41       92.40    
        91.37       90.77       90.64       90.61       90.72       90.98       91.37       91.85       92.37       92.89    
        93.39       93.86       94.30       94.71       95.09       95.45       95.79       96.12       96.45       96.79    
        97.13       97.48       97.69       97.78       97.88       97.99       98.09       98.18       98.29       98.40    
        98.53       98.67       98.81       98.97       99.13       99.30       99.47       99.64       99.82       100.0    
   5    100.0       99.05       98.08       97.09       96.05       94.96       93.81       92.58       91.26       89.88    
        88.44       87.59       87.37       87.28       87.40       87.77       88.36       89.07       89.81       90.54    
        91.23       91.87       92.45       92.99       93.48       93.95       94.40       94.84       95.27       95.71    
        96.16       96.62       96.90       97.02       97.15       97.30       97.44       97.56       97.70       97.85    
        98.02       98.21       98.40       98.61       98.83       99.05       99.29       99.52       99.76       100.0    
   6    100.0       98.83       97.65       96.43       95.16       93.82       92.39       90.85       89.19       87.41    
        85.51       84.33       83.96       83.73       83.82       84.36       85.23       86.24       87.27       88.24    
        89.13       89.93       90.65       91.30       91.91       92.47       93.02       93.55       94.08       94.62    
        95.17       95.74       96.10       96.24       96.40       96.59       96.76       96.92       97.09       97.29    
        97.50       97.74       97.98       98.25       98.52       98.81       99.10       99.40       99.70       100.0    
   7    100.0       98.64       97.26       95.83       94.35       92.77       91.09       89.26       87.25       85.05    
        82.62       81.06       80.42       79.87       79.78       80.62       81.96       83.41       84.79       86.02    
        87.11       88.07       88.91       89.67       90.37       91.02       91.65       92.27       92.89       93.52    
        94.17       94.84       95.27       95.43       95.63       95.86       96.07       96.25       96.46       96.70    
        96.96       97.25       97.55       97.87       98.21       98.55       98.91       99.27       99.63       100.0    
   8    100.0       98.46       96.90       95.30       93.62       91.84       89.92       87.83       85.51       82.90    
        79.93       77.90       76.80       75.53       74.83       76.38       78.56       80.65       82.44       83.95    
        85.23       86.31       87.26       88.10       88.87       89.59       90.29       90.98       91.68       92.40    
        93.14       93.92       94.40       94.60       94.84       95.10       95.35       95.56       95.81       96.09    
        96.40       96.74       97.10       97.48       97.88       98.29       98.71       99.14       99.57       100.0    
   9    100.0       98.31       96.59       94.83       92.99       91.04       88.93       86.63       84.06       81.12    
        77.66       75.15       73.37       70.60       67.63       71.52       75.27       78.17       80.39       82.12    
        83.53       84.70       85.71       86.60       87.42       88.19       88.94       89.69       90.46       91.25    
        92.08       92.96       93.51       93.74       94.00       94.31       94.59       94.84       95.13       95.46    
        95.82       96.21       96.63       97.07       97.54       98.01       98.50       99.00       99.50       100.0    
  10    100.0       98.18       96.34       94.44       92.47       90.38       88.15       85.70       82.98       79.85    
        76.14       73.33       70.94       65.88       53.58       66.78       72.83       76.38       78.81       80.63    
        82.06       83.25       84.27       85.18       86.02       86.81       87.60       88.39       89.20       90.06    
        90.97       91.95       92.57       92.83       93.14       93.48       93.80       94.09       94.41       94.78    
        95.20       95.65       96.13       96.65       97.18       97.73       98.29       98.86       99.43       100.0    
  11    100.0       98.08       96.13       94.13       92.06       89.89       87.57       85.06       82.29       79.18    
        75.57       72.97       71.17       68.38       65.37       69.20       72.89       75.71       77.84       79.51    
        80.85       81.97       82.95       83.83       84.65       85.45       86.24       87.05       87.91       88.82    
        89.81       90.88       91.58       91.87       92.22       92.62       92.97       93.29       93.65       94.07    
        94.54       95.05       95.61       96.20       96.81       97.44       98.07       98.71       99.36       100.0    
  12    100.0       97.99       95.97       93.90       91.76       89.53       87.18       84.67       81.96       79.00    
        75.73       73.54       72.41       71.09       70.33       71.77       73.81       75.72       77.35       78.71    
        79.85       80.84       81.72       82.53       83.31       84.09       84.87       85.68       86.55       87.50    
        88.55       89.73       90.52       90.87       91.27       91.71       92.09       92.44       92.84       93.30    
        93.83       94.42       95.06       95.73       96.43       97.13       97.85       98.56       99.28       100.0    
  13    100.0       97.94       95.85       93.73       91.55       89.30       86.94       84.47       81.87       79.13    
        76.26       74.50       73.84       73.25       73.08       73.74       74.84       76.03       77.13       78.12    
        79.00       79.81       80.55       81.27       81.99       82.71       83.46       84.26       85.12       86.07    
        87.16       88.45       89.39       89.80       90.27       90.76       91.17       91.54       91.96       92.46    
        93.06       93.74       94.47       95.24       96.03       96.82       97.62       98.41       99.21       100.0    
  14    100.0       97.89       95.77       93.62       91.42       89.16       86.83       84.41       81.92       79.38    
        76.88       75.53       75.21       74.99       74.99       75.29       75.80       76.41       77.03       77.64    
        78.24       78.83       79.42       80.02       80.65       81.31       82.01       82.77       83.59       84.51    
        85.57       86.90       88.15       88.70       89.24       89.78       90.21       90.58       91.00       91.53    
        92.21       93.00       93.85       94.73       95.62       96.51       97.39       98.26       99.13       100.0    
  15    100.0       97.87       95.73       93.56       91.35       89.10       86.79       84.43       82.02       79.61    
        77.23       76.07       75.97       75.92       75.95       76.08       76.32       76.62       76.98       77.37    
        77.79       78.24       78.73       79.26       79.83       80.44       81.11       81.84       82.62       83.49    
        84.44       85.52       86.78       87.59       88.23       88.80       89.23       89.55       89.93       90.46    
        91.25       92.20       93.20       94.22       95.22       96.20       97.17       98.12       99.06       100.0    
  16    100.0       97.86       95.71       93.53       91.33       89.09       86.81       84.49       82.14       79.78    
        77.45       76.25       76.18       76.14       76.16       76.25       76.42       76.64       76.92       77.24    
        77.61       78.01       78.46       78.96       79.50       80.10       80.75       81.46       82.23       83.05    
        83.94       84.89       85.85       86.64       87.30       87.86       88.25       88.48       88.70       89.12    
        90.13       91.33       92.55       93.72       94.84       95.91       96.96       97.99       99.00       100.0    
  17    100.0       97.86       95.71       93.54       91.34       89.12       86.87       84.58       82.27       79.94    
        77.62       76.42       76.35       76.30       76.30       76.35       76.45       76.61       76.82       77.08    
        77.39       77.74       78.15       78.61       79.13       79.71       80.34       81.03       81.77       82.56    
        83.39       84.24       85.08       85.83       86.48       87.01       87.33       87.41       87.29       87.18    
        88.82       90.47       91.94       93.26       94.49       95.66       96.78       97.87       98.94       100.0    
  18    100.0       97.86       95.72       93.56       91.39       89.19       86.96       84.70       82.41       80.10    
        77.78       76.57       76.49       76.43       76.39       76.39       76.44       76.53       76.67       76.87    
        77.11       77.42       77.78       78.21       78.70       79.25       79.87       80.54       81.26       82.02    
        82.81       83.62       84.40       85.12       85.76       86.29       86.59       86.54       85.88       83.48    
        87.50       89.78       91.47       92.91       94.22       95.44       96.62       97.76       98.89       100.0    
  19    100.0       97.88       95.75       93.61       91.46       89.28       87.07       84.84       82.57       80.26    
        77.93       76.71       76.62       76.52       76.44       76.39       76.37       76.40       76.47       76.60    
        76.78       77.03       77.35       77.74       78.21       78.74       79.34       80.00       80.71       81.46    
        82.23       83.01       83.77       84.49       85.15       85.74       86.13       86.27       86.22       86.18    
        87.92       89.67       91.25       92.69       94.02       95.28       96.50       97.68       98.85       100.0    
  20    100.0       97.90       95.79       93.68       91.55       89.40       87.22       85.01       82.76       80.46    
        78.10       76.86       76.74       76.60       76.47       76.36       76.27       76.22       76.22       76.27    
        76.39       76.58       76.85       77.20       77.64       78.16       78.76       79.41       80.12       80.87    
        81.64       82.42       83.18       83.92       84.63       85.29       85.83       86.19       86.55       87.11    
        88.32       89.75       91.18       92.57       93.89       95.17       96.41       97.62       98.81       100.0    
  21    100.0       97.92       95.84       93.76       91.66       89.55       87.41       85.23       83.00       80.70    
        78.31       77.03       76.87       76.68       76.48       76.29       76.12       75.99       75.91       75.88    
        75.93       76.05       76.26       76.58       76.99       77.51       78.11       78.78       79.50       80.26    
        81.04       81.84       82.62       83.39       84.14       84.85       85.51       86.09       86.71       87.48    
        88.57       89.83       91.16       92.48       93.79       95.07       96.32       97.56       98.78       100.0    
  22    100.0       97.95       95.90       93.85       91.79       89.72       87.63       85.51       83.32       81.04    
        78.60       77.25       77.04       76.77       76.48       76.20       75.94       75.72       75.54       75.43    
        75.38       75.42       75.57       75.85       76.25       76.77       77.39       78.08       78.84       79.63    
        80.44       81.26       82.08       82.89       83.68       84.45       85.20       85.95       86.73       87.63    
        88.69       89.87       91.13       92.41       93.69       94.97       96.24       97.50       98.75       100.0    
  23    100.0       97.98       95.96       93.94       91.93       89.91       87.89       85.84       83.74       81.52    
        79.06       77.58       77.27       76.88       76.48       76.09       75.73       75.40       75.12       74.89    
        74.74       74.69       74.77       74.99       75.39       75.93       76.59       77.33       78.14       78.97    
        79.83       80.69       81.54       82.39       83.24       84.07       84.91       85.75       86.64       87.61    
        88.69       89.84       91.07       92.32       93.60       94.88       96.16       97.44       98.72       100.0    
  24    100.0       98.01       96.02       94.04       92.07       90.11       88.17       86.23       84.27       82.24    
        79.91       78.10       77.58       77.01       76.46       75.95       75.47       75.04       74.64       74.29    
        74.01       73.83       73.80       73.98       74.37       74.97       75.71       76.53       77.40       78.30    
        79.21       80.11       81.02       81.91       82.80       83.70       84.60       85.52       86.48       87.50    
        88.59       89.76       90.97       92.22       93.50       94.79       96.09       97.39       98.70       100.0    
  25    100.0       98.02       96.04       94.08       92.13       90.21       88.31       86.44       84.60       82.77    
        80.96       79.10       77.99       77.13       76.40       75.75       75.15       74.58       74.04       73.53    
        73.07       72.70       72.49       72.57       73.02       73.73       74.61       75.57       76.55       77.54    
        78.51       79.48       80.43       81.38       82.32       83.26       84.22       85.20       86.22       87.29    
        88.42       89.59       90.82       92.08       93.37       94.68       96.00       97.33       98.66       100.0    
  26    100.0       98.01       96.03       94.07       92.12       90.19       88.30       86.43       84.61       82.82    
        81.10       79.48       78.19       77.13       76.26       75.48       74.75       74.05       73.35       72.64    
        71.93       71.26       70.76       70.66       71.23       72.20       73.32       74.47       75.60       76.69    
        77.75       78.78       79.79       80.78       81.77       82.77       83.78       84.82       85.89       87.00    
        88.16       89.37       90.62       91.90       93.21       94.55       95.90       97.26       98.63       100.0    
  27    100.0       98.00       96.01       94.04       92.08       90.15       88.25       86.39       84.57       82.81    
        81.12       79.54       78.15       76.96       76.01       75.15       74.33       73.52       72.67       71.75    
        70.75       69.67       68.62       68.07       69.04       70.51       72.01       73.40       74.69       75.89    
        77.01       78.10       79.15       80.19       81.23       82.27       83.32       84.40       85.52       86.67    
        87.86       89.10       90.38       91.69       93.03       94.40       95.78       97.18       98.59       100.0    
  28    100.0       97.98       95.96       93.96       91.98       90.04       88.12       86.26       84.44       82.68    
        80.98       79.36       77.80       76.55       75.66       74.79       73.92       73.01       72.05       70.96    
        69.66       68.03       65.98       63.96       66.36       68.79       70.79       72.44       73.87       75.14    
        76.33       77.45       78.54       79.61       80.67       81.74       82.84       83.95       85.10       86.29    
        87.52       88.79       90.10       91.45       92.82       94.23       95.65       97.09       98.54       100.0    
  29    100.0       97.93       95.87       93.83       91.82       89.85       87.91       86.03       84.20       82.44    
        80.73       79.07       77.43       76.18       75.31       74.43       73.52       72.58       71.55       70.37    
        68.89       66.82       63.30       55.43       63.65       67.51       69.92       71.71       73.19       74.50    
        75.70       76.83       77.94       79.02       80.11       81.21       82.32       83.47       84.65       85.87    
        87.14       88.44       89.79       91.17       92.59       94.04       95.51       96.99       98.49       100.0    
  30    100.0       97.88       95.77       93.68       91.63       89.61       87.65       85.75       83.91       82.14    
        80.42       78.75       77.10       75.84       74.97       74.09       73.17       72.23       71.21       70.07    
        68.73       67.06       64.97       62.91       65.28       67.69       69.66       71.29       72.69       73.96    
        75.13       76.26       77.35       78.44       79.53       80.64       81.78       82.95       84.16       85.41    
        86.71       88.05       89.44       90.86       92.33       93.82       95.34       96.88       98.44       100.0    
  31    100.0       97.81       95.64       93.49       91.39       89.33       87.34       85.41       83.56       81.78    
        80.07       78.41       76.78       75.54       74.66       73.77       72.86       71.94       70.99       69.98    
        68.89       67.72       66.59       65.97       66.88       68.29       69.74       71.09       72.34       73.51    
        74.62       75.70       76.78       77.85       78.94       80.06       81.21       82.40       83.63       84.91    
        86.24       87.62       89.05       90.52       92.03       93.58       95.16       96.76       98.38       100.0    
  32    100.0       97.73       95.48       93.27       91.10       88.99       86.95       84.99       83.13       81.35    
        79.66       78.05       76.49       75.28       74.37       73.46       72.56       71.69       70.83       69.97    
        69.12       68.33       67.71       67.51       67.98       68.87       69.91       70.99       72.06       73.11    
        74.14       75.16       76.20       77.25       78.33       79.44       80.59       81.80       83.05       84.36    
        85.72       87.14       88.61       90.13       91.70       93.31       94.95       96.62       98.31       100.0    
  33    100.0       97.66       95.34       93.06       90.83       88.68       86.60       84.62       82.73       80.96    
        79.29       77.74       76.33       75.11       74.08       73.13       72.25       71.42       70.66       69.95    
        69.30       68.77       68.42       68.36       68.68       69.28       70.05       70.91       71.81       72.73    
        73.66       74.62       75.60       76.62       77.67       78.78       79.93       81.14       82.42       83.75    
        85.15       86.61       88.13       89.70       91.33       93.01       94.72       96.46       98.23       100.0    
  34    100.0       97.59       95.21       92.87       90.59       88.39       86.27       84.27       82.37       80.59    
        78.93       77.40       76.01       74.78       73.70       72.73       71.87       71.11       70.43       69.85    
        69.38       69.03       68.83       68.84       69.08       69.52       70.10       70.78       71.53       72.33    
        73.16       74.04       74.97       75.95       76.97       78.06       79.21       80.43       81.72       83.08    
        84.51       86.01       87.58       89.22       90.92       92.66       94.46       96.28       98.14       100.0    
  35    100.0       97.50       95.03       92.61       90.26       88.00       85.85       83.80       81.89       80.10    
        78.44       76.92       75.53       74.30       73.20       72.24       71.40       70.70       70.11       69.66    
        69.33       69.12       69.04       69.10       69.29       69.62       70.06       70.59       71.20       71.88    
        72.62       73.43       74.29       75.22       76.22       77.28       78.43       79.65       80.95       82.34    
        83.80       85.35       86.98       88.68       90.45       92.28       94.16       96.08       98.03       100.0    
  36    100.0       97.43       94.89       92.41       90.00       87.70       85.50       83.43       81.50       79.70    
        78.04       76.52       75.14       73.90       72.80       71.84       71.03       70.35       69.83       69.45    
        69.22       69.11       69.09       69.16       69.34       69.61       69.98       70.43       70.97       71.58    
        72.26       73.02       73.84       74.74       75.72       76.77       77.91       79.13       80.44       81.84    
        83.33       84.91       86.57       88.31       90.13       92.01       93.96       95.94       97.96       100.0    
  37    100.0       97.37       94.78       92.24       89.79       87.45       85.23       83.15       81.20       79.40    
        77.73       76.21       74.84       73.59       72.49       71.53       70.72       70.06       69.57       69.24    
        69.10       69.02       69.01       69.08       69.25       69.51       69.86       70.30       70.81       71.41    
        72.07       72.81       73.62       74.51       75.47       76.52       77.65       78.87       80.18       81.59    
        83.08       84.67       86.35       88.11       89.95       91.87       93.84       95.87       97.92       100.0    
  38    100.0       97.28       94.60       91.99       89.48       87.09       84.83       82.72       80.76       78.95    
        77.29       75.77       74.39       73.15       72.04       71.08       70.26       69.61       69.15       68.87    
        68.75       68.66       68.65       68.71       68.87       69.11       69.43       69.83       70.32       70.87    
        71.50       72.20       72.98       73.83       74.77       75.79       76.90       78.11       79.42       80.83    
        82.35       83.98       85.70       87.51       89.42       91.42       93.49       95.62       97.80       100.0    
  39    100.0       97.16       94.36       91.64       89.04       86.58       84.28       82.14       80.17       78.35    
        76.69       75.18       73.81       72.57       71.46       70.47       69.63       68.97       68.54       68.29    
        68.14       68.03       68.01       68.06       68.19       68.40       68.68       69.04       69.47       69.98    
        70.55       71.19       71.91       72.71       73.59       74.57       75.64       76.83       78.14       79.57    
        81.13       82.80       84.59       86.50       88.52       90.65       92.89       95.21       97.59       100.0    
  40    100.0       96.99       94.03       91.18       88.47       85.93       83.57       81.40       79.41       77.60    
        75.95       74.46       73.10       71.86       70.74       69.72       68.82       68.10       67.74       67.55    
        67.42       67.32       67.29       67.33       67.44       67.62       67.86       68.18       68.56       69.01    
        69.52       70.11       70.77       71.51       72.33       73.25       74.28       75.43       76.73       78.19    
        79.78       81.51       83.37       85.37       87.51       89.79       92.20       94.73       97.34       100.0    
  41    100.0       96.76       93.59       90.57       87.72       85.09       82.67       80.47       78.48       76.68    
        75.06       73.59       72.26       71.04       69.92       68.85       67.82       66.89       66.75       66.70    
        66.62       66.53       66.50       66.53       66.62       66.77       66.98       67.25       67.58       67.97    
        68.43       68.95       69.55       70.21       70.97       71.82       72.78       73.89       75.16       76.66    
        78.31       80.09       82.02       84.10       86.36       88.79       91.40       94.16       97.05       100.0    
  42    100.0       96.46       93.02       89.77       86.77       84.03       81.55       79.34       77.36       75.59    
        74.01       72.59       71.31       70.14       69.04       67.94       66.72       64.88       65.69       65.85    
        65.78       65.69       65.65       65.66       65.73       65.85       66.03       66.26       66.54       66.88    
        67.27       67.73       68.25       68.84       69.51       70.27       71.15       72.16       73.38       74.98    
        76.70       78.53       80.51       82.66       85.02       87.61       90.44       93.48       96.69       100.0    
  43    100.0       96.06       92.26       88.74       85.55       82.70       80.18       77.97       76.02       74.31    
        72.80       71.46       70.25       69.16       68.14       67.18       66.23       65.36       65.26       65.22    
        65.08       64.98       64.93       64.93       64.98       65.08       65.22       65.42       65.66       65.95    
        66.29       66.69       67.15       67.67       68.27       68.95       69.73       70.62       71.65       73.19    
        74.98       76.83       78.82       81.01       83.46       86.20       89.26       92.62       96.24       100.0    
  44    100.0       95.50       91.24       87.38       83.98       81.03       78.50       76.33       74.46       72.84    
        71.43       70.19       69.08       68.10       67.20       66.39       65.65       65.07       64.79       64.64    
        64.50       64.40       64.34       64.33       64.37       64.45       64.58       64.74       64.95       65.21    
        65.51       65.86       66.26       66.73       67.26       67.86       68.55       69.34       70.22       71.53    
        73.20       74.98       76.92       79.11       81.60       84.48       87.78       91.52       95.64       100.0    
  45    100.0       94.70       89.81       85.55       81.96       78.96       76.47       74.39       72.64       71.15    
        69.88       68.77       67.80       66.95       66.18       65.51       64.93       64.48       64.19       64.01    
        63.87       63.76       63.70       63.69       63.72       63.78       63.88       64.02       64.20       64.41    
        64.67       64.97       65.32       65.71       66.17       66.69       67.28       67.95       68.70       69.83    
        71.33       72.96       74.79       76.89       79.37       82.32       85.85       90.02       94.81       100.0    
  46    100.0       93.49       87.76       83.07       79.33       76.38       74.02       72.12       70.56       69.26    
        68.16       67.22       66.41       65.70       65.08       64.54       64.09       63.73       63.48       63.31    
        63.18       63.08       63.02       63.01       63.02       63.07       63.15       63.27       63.41       63.58    
        63.79       64.03       64.32       64.64       65.01       65.44       65.92       66.47       67.10       68.04    
        69.32       70.74       72.37       74.31       76.67       79.60       83.28       87.91       93.57       100.0    
  47    100.0       91.50       84.68       79.62       75.93       73.19       71.12       69.50       68.21       67.16    
        66.28       65.54       64.91       64.36       63.89       63.48       63.15       62.88       62.68       62.54    
        62.44       62.35       62.30       62.29       62.30       62.33       62.39       62.48       62.59       62.72    
        62.88       63.06       63.28       63.52       63.81       64.13       64.50       64.93       65.41       66.14    
        67.16       68.31       69.66       71.31       73.39       76.11       79.77       84.78       91.55       100.0    
  48    100.0       87.82       79.83       74.82       71.57       69.35       67.76       66.56       65.63       64.89    
        64.27       63.76       63.33       62.95       62.63       62.36       62.14       61.96       61.82       61.72    
        61.65       61.59       61.55       61.54       61.55       61.57       61.61       61.67       61.74       61.83    
        61.93       62.06       62.20       62.37       62.56       62.78       63.03       63.32       63.65       64.16    
        64.86       65.68       66.65       67.87       69.47       71.68       74.91       79.90       87.86       100.0    
  49    100.0       79.96       72.01       68.25       66.18       64.88       64.00       63.36       62.87       62.48    
        62.16       61.90       61.68       61.49       61.33       61.19       61.08       60.99       60.92       60.87    
        60.83       60.80       60.78       60.78       60.78       60.79       60.81       60.84       60.87       60.92    
        60.97       61.03       61.11       61.19       61.29       61.40       61.53       61.67       61.84       62.10    
        62.46       62.88       63.40       64.05       64.94       66.23       68.30       72.04       79.97       100.0    
  50    60.00       60.00       60.00       60.00       60.00       60.00       60.00       60.00       60.00       60.00    
        60.00       60.00       60.00       60.00       60.00       60.00       60.00       60.00       60.00       60.00    
        60.00       60.00       60.00       60.00       60.00       60.00       60.00       60.00       60.00       60.00    
        60.00       60.00       60.00       60.00       60.00       60.00       60.00       60.00       60.00       60.00    
        60.00       60.00       60.00       60.00       60.00       60.00       60.00       60.00       60.00       60.00    

 HEAD WILL BE SAVED ON UNIT   51 AT END OF TIME STEP   1, STRESS PERIOD    2
1
  VOLUMETRIC BUDGET FOR ENTIRE MODEL AT END OF TIME STEP  1 IN STRESS PERIOD   2
  ------------------------------------------------------------------------------

     CUMULATIVE VOLUMES      L**3       RATES FOR THIS TIME STEP      L**3/T
     ------------------                 ------------------------

           IN:                                      IN:
           ---                                      ---
             STORAGE =           0.0000               STORAGE =           0.0000
       CONSTANT HEAD =  1163319420.0000         CONSTANT HEAD =     1592715.5000
               WELLS =           0.0000                 WELLS =           0.0000

            TOTAL IN =  1163319420.0000              TOTAL IN =     1592715.5000

          OUT:                                     OUT:
          ----                                     ----
             STORAGE =           0.0000               STORAGE =           0.0000
       CONSTANT HEAD =   966476608.0000         CONSTANT HEAD =     1323215.5000
               WELLS =   196842800.0000                 WELLS =      269500.0000

           TOTAL OUT =  1163319420.0000             TOTAL OUT =     1592715.5000

            IN - OUT =          16.0000              IN - OUT =           0.0000

 PERCENT DISCREPANCY =           0.00     PERCENT DISCREPANCY =           0.00






          TIME SUMMARY AT END OF TIME STEP   1 IN STRESS PERIOD    2
                    SECONDS     MINUTES      HOURS       DAYS        YEARS
                    -----------------------------------------------------------
   TIME STEP LENGTH 3.15533E+07 5.25888E+05  8764.8      365.20     0.99986    
 STRESS PERIOD TIME 3.15533E+07 5.25888E+05  8764.8      365.20     0.99986    
         TOTAL TIME 6.31066E+07 1.05178E+06  17530.      730.40      1.9997    
1
1
                            STRESS PERIOD NO.    3, LENGTH =   365.2000    
                            -----------------------------------------------

                              NUMBER OF TIME STEPS =     1

                               MULTIPLIER FOR DELT =     1.000

                            INITIAL TIME STEP SIZE =   365.2000    

 WELL NO.  LAYER   ROW   COL   STRESS RATE         
 --------------------------------------------------
      1      1     10     15     -0.3850E+05
      2      1     18     40     -0.7700E+05
      3      1     29     24     -0.9625E+05
      4      1     42     18     -0.5775E+05

      4 WELLS
 
 SOLVING FOR HEAD 

 OUTPUT CONTROL FOR STRESS PERIOD    3   TIME STEP   1
    PRINT HEAD FOR ALL LAYERS
    PRINT BUDGET
    SAVE HEAD FOR ALL LAYERS
    SAVE BUDGET
 UBDSV2 SAVING "   CONSTANT HEAD" ON UNIT  53 AT TIME STEP  1, STRESS PERIOD   3
 UBDSV1 SAVING "FLOW RIGHT FACE " ON UNIT  53 AT TIME STEP  1, STRESS PERIOD   3
 UBDSV1 SAVING "FLOW FRONT FACE " ON UNIT  53 AT TIME STEP  1, STRESS PERIOD   3
 UBDSV4 SAVING "           WELLS" ON UNIT  53 AT TIME STEP  1, STRESS PERIOD   3
1
              HEAD IN LAYER   1 AT END OF TIME STEP   1 IN STRESS PERIOD    3
  ---------------------------------------------------------------------------

            1           2           3           4           5           6           7           8           9          10
           11          12          13          14          15          16          17          18          19          20
           21          22          23          24          25          26          27          28          29          30
           31          32          33          34          35          36          37          38          39          40
           41          42          43          44          45          46          47          48          49          50
 ........................................................................................................................
   1    100.0       100.0       100.0       100.0       100.0       100.0       100.0       100.0       100.0       100.0    
        100.0       100.0       100.0       100.0       100.0       100.0       100.0       100.0       100.0       100.0    
        100.0       100.0       100.0       100.0       100.0       100.0       100.0       100.0       100.0       100.0    
        100.0       100.0       100.0       100.0       100.0       100.0       100.0       100.0       100.0       100.0    
        100.0       100.0       100.0       100.0       100.0       100.0       100.0       100.0       100.0       100.0    
   2    100.0       99.75       99.50       99.25       98.98       98.70       98.41       98.11       97.79       97.47    
        97.14       96.96       96.93       96.92       96.96       97.04       97.16       97.30       97.46       97.63    
        97.79       97.94       98.09       98.23       98.35       98.48       98.59       98.71       98.82       98.93    
        99.05       99.16       99.24       99.27       99.30       99.34       99.37       99.40       99.43       99.47    
        99.51       99.56       99.61       99.66       99.71       99.77       99.82       99.88       99.94       100.0    
   3    100.0       99.51       99.01       98.50       97.98       97.42       96.84       96.23       95.59       94.93    
        94.27       93.89       93.82       93.81       93.89       94.05       94.29       94.59       94.92       95.25    
        95.58       95.89       96.19       96.46       96.71       96.96       97.19       97.41       97.64       97.86    
        98.09       98.32       98.47       98.53       98.59       98.67       98.73       98.80       98.86       98.94    
        99.02       99.12       99.21       99.32       99.42       99.53       99.65       99.76       99.88       100.0    
   4    100.0       99.27       98.54       97.78       96.99       96.17       95.30       94.38       93.41       92.40    
        91.37       90.77       90.64       90.61       90.72       90.98       91.37       91.85       92.37       92.89    
        93.39       93.86       94.30       94.71       95.09       95.45       95.79       96.12       96.45       96.79    
        97.13       97.48       97.69       97.78       97.88       97.99       98.09       98.18       98.29       98.40    
        98.53       98.67       98.81       98.97       99.13       99.30       99.47       99.64       99.82       100.0    
   5    100.0       99.05       98.08       97.09       96.05       94.96       93.81       92.58       91.26       89.88    
        88.44       87.59       87.37       87.28       87.40       87.77       88.36       89.07       89.81       90.54    
        91.23       91.87       92.45       92.99       93.48       93.95       94.40       94.84       95.27       95.71    
        96.16       96.62       96.90       97.02       97.15       97.30       97.44       97.56       97.70       97.85    
        98.02       98.21       98.40       98.61       98.83       99.05       99.29       99.52       99.76       100.0    
   6    100.0       98.83       97.65       96.43       95.16       93.82       92.39       90.85       89.19       87.41    
        85.51       84.33       83.96       83.73       83.82       84.36       85.23       86.24       87.27       88.24    
        89.13       89.93       90.65       91.30       91.91       92.47       93.02       93.55       94.08       94.62    
        95.17       95.74       96.10       96.24       96.40       96.59       96.76       96.92       97.09       97.29    
        97.50       97.74       97.98       98.25       98.52       98.81       99.10       99.40       99.70       100.0    
   7    100.0       98.64       97.26       95.83       94.35       92.77       91.09       89.26       87.25       85.05    
        82.62       81.06       80.42       79.87       79.78       80.62       81.96       83.41       84.79       86.02    
        87.11       88.07       88.91       89.67       90.37       91.02       91.65       92.27       92.89       93.52    
        94.17       94.84       95.27       95.43       95.63       95.86       96.07       96.25       96.46       96.70    
        96.96       97.25       97.55       97.87       98.21       98.55       98.91       99.27       99.63       100.0    
   8    100.0       98.46       96.90       95.30       93.62       91.84       89.92       87.83       85.51       82.90    
        79.93       77.90       76.80       75.53       74.83       76.38       78.56       80.65       82.44       83.95    
        85.23       86.31       87.26       88.10       88.87       89.59       90.29       90.98       91.68       92.40    
        93.14       93.92       94.40       94.60       94.84       95.10       95.35       95.56       95.81       96.09    
        96.40       96.74       97.10       97.48       97.88       98.29       98.71       99.14       99.57       100.0    
   9    100.0       98.31       96.59       94.83       92.99       91.04       88.93       86.63       84.06       81.12    
[...]
        75.38       75.42       75.57       75.85       76.25       76.77       77.39       78.08       78.84       79.63    
        80.44       81.26       82.08       82.89       83.68       84.45       85.20       85.95       86.73       87.63    
        88.69       89.87       91.13       92.41       93.69       94.97       96.24       97.50       98.75       100.0    
  23    100.0       97.98       95.96       93.94       91.93       89.91       87.89       85.84       83.74       81.52    
        79.06       77.58       77.27       76.88       76.48       76.09       75.73       75.40       75.12       74.89    
        74.74       74.69       74.77       74.99       75.39       75.93       76.59       77.33       78.14       78.97    
        79.83       80.69       81.54       82.39       83.24       84.07       84.91       85.75       86.64       87.61    
        88.69       89.84       91.07       92.32       93.60       94.88       96.16       97.44       98.72       100.0    
  24    100.0       98.01       96.02       94.04       92.07       90.11       88.17       86.23       84.27       82.24    
        79.91       78.10       77.58       77.01       76.46       75.95       75.47       75.04       74.64       74.29    
        74.01       73.83       73.80       73.98       74.37       74.97       75.71       76.53       77.40       78.30    
        79.21       80.11       81.02       81.91       82.80       83.70       84.60       85.52       86.48       87.50    
        88.59       89.76       90.97       92.22       93.50       94.79       96.09       97.39       98.70       100.0    
  25    100.0       98.02       96.04       94.08       92.13       90.21       88.31       86.44       84.60       82.77    
        80.96       79.10       77.99       77.13       76.40       75.75       75.15       74.58       74.04       73.53    
        73.07       72.70       72.49       72.57       73.02       73.73       74.61       75.57       76.55       77.54    
        78.51       79.48       80.43       81.38       82.32       83.26       84.22       85.20       86.22       87.29    
        88.42       89.59       90.82       92.08       93.37       94.68       96.00       97.33       98.66       100.0    
  26    100.0       98.01       96.03       94.07       92.12       90.19       88.30       86.43       84.61       82.82    
        81.10       79.48       78.19       77.13       76.26       75.48       74.75       74.05       73.35       72.64    
        71.93       71.26       70.76       70.66       71.23       72.20       73.32       74.47       75.60       76.69    
        77.75       78.78       79.79       80.78       81.77       82.77       83.78       84.82       85.89       87.00    
        88.16       89.37       90.62       91.90       93.21       94.55       95.90       97.26       98.63       100.0    
  27    100.0       98.00       96.01       94.04       92.08       90.15       88.25       86.39       84.57       82.81    
        81.12       79.54       78.15       76.96       76.01       75.15       74.33       73.52       72.67       71.75    
        70.75       69.67       68.62       68.07       69.04       70.51       72.01       73.40       74.69       75.89    
        77.01       78.10       79.15       80.19       81.23       82.27       83.32       84.40       85.52       86.67    
        87.86       89.10       90.38       91.69       93.03       94.40       95.78       97.18       98.59       100.0    
  28    100.0       97.98       95.96       93.96       91.98       90.04       88.12       86.26       84.44       82.68    
        80.98       79.36       77.80       76.55       75.66       74.79       73.92       73.01       72.05       70.96    
        69.66       68.03       65.98       63.96       66.36       68.79       70.79       72.44       73.87       75.14    
        76.33       77.45       78.54       79.61       80.67       81.74       82.84       83.95       85.10       86.29    
        87.52       88.79       90.10       91.45       92.82       94.23       95.65       97.09       98.54       100.0    
  29    100.0       97.93       95.87       93.83       91.82       89.85       87.91       86.03       84.20       82.44    
        80.73       79.07       77.43       76.18       75.31       74.43       73.52       72.58       71.55       70.37    
        68.89       66.82       63.30       55.43       63.65       67.51       69.92       71.71       73.19       74.50    
        75.70       76.83       77.94       79.02       80.11       81.21       82.32       83.47       84.65       85.87    
        87.14       88.44       89.79       91.17       92.59       94.04       95.51       96.99       98.49       100.0    
  30    100.0       97.88       95.77       93.68       91.63       89.61       87.65       85.75       83.91       82.14    
        80.42       78.75       77.10       75.84       74.97       74.09       73.17       72.23       71.21       70.07    
        68.73       67.06       64.97       62.91       65.28       67.69       69.66       71.29       72.69       73.96    
        75.13       76.26       77.35       78.44       79.53       80.64       81.78       82.95       84.16       85.41    
        86.71       88.05       89.44       90.86       92.33       93.82       95.34       96.88       98.44       100.0    
  31    100.0       97.81       95.64       93.49       91.39       89.33       87.34       85.41       83.56       81.78    
        80.07       78.41       76.78       75.54       74.66       73.77       72.86       71.94       70.99       69.98    
        68.89       67.72       66.59       65.97       66.88       68.29       69.74       71.09       72.34       73.51    
        74.62       75.70       76.78       77.85       78.94       80.06       81.21       82.40       83.63       84.91    
        86.24       87.62       89.05       90.52       92.03       93.58       95.16       96.76       98.38       100.0    
  32    100.0       97.73       95.48       93.27       91.10       88.99       86.95       84.99       83.13       81.35    
        79.66       78.05       76.49       75.28       74.37       73.46       72.56       71.69       70.83       69.97    
        69.12       68.33       67.71       67.51       67.98       68.87       69.91       70.99       72.06       73.11    
        74.14       75.16       76.20       77.25       78.33       79.44       80.59       81.80       83.05       84.36    
        85.72       87.14       88.61       90.13       91.70       93.31       94.95       96.62       98.31       100.0    
  33    100.0       97.66       95.34       93.06       90.83       88.68       86.60       84.62       82.73       80.96    
        79.29       77.74       76.33       75.11       74.08       73.13       72.25       71.42       70.66       69.95    
        69.30       68.77       68.42       68.36       68.68       69.28       70.05       70.91       71.81       72.73    
        73.66       74.62       75.60       76.62       77.67       78.78       79.93       81.14       82.42       83.75    
        85.15       86.61       88.13       89.70       91.33       93.01       94.72       96.46       98.23       100.0    
  34    100.0       97.59       95.21       92.87       90.59       88.39       86.27       84.27       82.37       80.59    
        78.93       77.40       76.01       74.78       73.70       72.73       71.87       71.11       70.43       69.85    
        69.38       69.03       68.83       68.84       69.08       69.52       70.10       70.78       71.53       72.33    
        73.16       74.04       74.97       75.95       76.97       78.06       79.21       80.43       81.72       83.08    
        84.51       86.01       87.58       89.22       90.92       92.66       94.46       96.28       98.14       100.0    
  35    100.0       97.50       95.03       92.61       90.26       88.00       85.85       83.80       81.89       80.10    
        78.44       76.92       75.53       74.30       73.20       72.24       71.40       70.70       70.11       69.66    
        69.33       69.12       69.04       69.10       69.29       69.62       70.06       70.59       71.20       71.88    
        72.62       73.43       74.29       75.22       76.22       77.28       78.43       79.65       80.95       82.34    
        83.80       85.35       86.98       88.68       90.45       92.28       94.16       96.08       98.03       100.0    
  36    100.0       97.43       94.89       92.41       90.00       87.70       85.50       83.43       81.50       79.70    
        78.04       76.52       75.14       73.90       72.80       71.84       71.03       70.35       69.83       69.45    
        69.22       69.11       69.09       69.16       69.34       69.61       69.98       70.43       70.97       71.58    
        72.26       73.02       73.84       74.74       75.72       76.77       77.91       79.13       80.44       81.84    
        83.33       84.91       86.57       88.31       90.13       92.01       93.96       95.94       97.96       100.0    
  37    100.0       97.37       94.78       92.24       89.79       87.45       85.23       83.15       81.20       79.40    
        77.73       76.21       74.84       73.59       72.49       71.53       70.72       70.06       69.57       69.24    
        69.10       69.02       69.01       69.08       69.25       69.51       69.86       70.30       70.81       71.41    
        72.07       72.81       73.62       74.51       75.47       76.52       77.65       78.87       80.18       81.59    
        83.08       84.67       86.35       88.11       89.95       91.87       93.84       95.87       97.92       100.0    
  38    100.0       97.28       94.60       91.99       89.48       87.09       84.83       82.72       80.76       78.95    
        77.29       75.77       74.39       73.15       72.04       71.08       70.26       69.61       69.15       68.87    
        68.75       68.66       68.65       68.71       68.87       69.11       69.43       69.83       70.32       70.87    
        71.50       72.20       72.98       73.83       74.77       75.79       76.90       78.11       79.42       80.83    
        82.35       83.98       85.70       87.51       89.42       91.42       93.49       95.62       97.80       100.0    
  39    100.0       97.16       94.36       91.64       89.04       86.58       84.28       82.14       80.17       78.35    
        76.69       75.18       73.81       72.57       71.46       70.47       69.63       68.97       68.54       68.29    
        68.14       68.03       68.01       68.06       68.19       68.40       68.68       69.04       69.47       69.98    
        70.55       71.19       71.91       72.71       73.59       74.57       75.64       76.83       78.14       79.57    
        81.13       82.80       84.59       86.50       88.52       90.65       92.89       95.21       97.59       100.0    
  40    100.0       96.99       94.03       91.18       88.47       85.93       83.57       81.40       79.41       77.60    
        75.95       74.46       73.10       71.86       70.74       69.72       68.82       68.10       67.74       67.55    
        67.42       67.32       67.29       67.33       67.44       67.62       67.86       68.18       68.56       69.01    
        69.52       70.11       70.77       71.51       72.33       73.25       74.28       75.43       76.73       78.19    
        79.78       81.51       83.37       85.37       87.51       89.79       92.20       94.73       97.34       100.0    
  41    100.0       96.76       93.59       90.57       87.72       85.09       82.67       80.47       78.48       76.68    
        75.06       73.59       72.26       71.04       69.92       68.85       67.82       66.89       66.75       66.70    
        66.62       66.53       66.50       66.53       66.62       66.77       66.98       67.25       67.58       67.97    
        68.43       68.95       69.55       70.21       70.97       71.82       72.78       73.89       75.16       76.66    
        78.31       80.09       82.02       84.10       86.36       88.79       91.40       94.16       97.05       100.0    
  42    100.0       96.46       93.02       89.77       86.77       84.03       81.55       79.34       77.36       75.59    
        74.01       72.59       71.31       70.14       69.04       67.94       66.72       64.88       65.69       65.85    
        65.78       65.69       65.65       65.66       65.73       65.85       66.03       66.26       66.54       66.88    
        67.27       67.73       68.25       68.84       69.51       70.27       71.15       72.16       73.38       74.98    
        76.70       78.53       80.51       82.66       85.02       87.61       90.44       93.48       96.69       100.0    
  43    100.0       96.06       92.26       88.74       85.55       82.70       80.18       77.97       76.02       74.31    
        72.80       71.46       70.25       69.16       68.14       67.18       66.23       65.36       65.26       65.22    
        65.08       64.98       64.93       64.93       64.98       65.08       65.22       65.42       65.66       65.95    
        66.29       66.69       67.15       67.67       68.27       68.95       69.73       70.62       71.65       73.19    
        74.98       76.83       78.82       81.01       83.46       86.20       89.26       92.62       96.24       100.0    
  44    100.0       95.50       91.24       87.38       83.98       81.03       78.50       76.33       74.46       72.84    
        71.43       70.19       69.08       68.10       67.20       66.39       65.65       65.07       64.79       64.64    
        64.50       64.40       64.34       64.33       64.37       64.45       64.58       64.74       64.95       65.21    
        65.51       65.86       66.26       66.73       67.26       67.86       68.55       69.34       70.22       71.53    
        73.20       74.98       76.92       79.11       81.60       84.48       87.78       91.52       95.64       100.0    
  45    100.0       94.70       89.81       85.55       81.96       78.96       76.47       74.39       72.64       71.15    
        69.88       68.77       67.80       66.95       66.18       65.51       64.93       64.48       64.19       64.01    
        63.87       63.76       63.70       63.69       63.72       63.78       63.88       64.02       64.20       64.41    
        64.67       64.97       65.32       65.71       66.17       66.69       67.28       67.95       68.70       69.83    
        71.33       72.96       74.79       76.89       79.37       82.32       85.85       90.02       94.81       100.0    
  46    100.0       93.49       87.76       83.07       79.33       76.38       74.02       72.12       70.56       69.26    
        68.16       67.22       66.41       65.70       65.08       64.54       64.09       63.73       63.48       63.31    
        63.18       63.08       63.02       63.01       63.02       63.07       63.15       63.27       63.41       63.58    
        63.79       64.03       64.32       64.64       65.01       65.44       65.92       66.47       67.10       68.04    
        69.32       70.74       72.37       74.31       76.67       79.60       83.28       87.91       93.57       100.0    
  47    100.0       91.50       84.68       79.62       75.93       73.19       71.12       69.50       68.21       67.16    
        66.28       65.54       64.91       64.36       63.89       63.48       63.15       62.88       62.68       62.54    
        62.44       62.35       62.30       62.29       62.30       62.33       62.39       62.48       62.59       62.72    
        62.88       63.06       63.28       63.52       63.81       64.13       64.50       64.93       65.41       66.14    
        67.16       68.31       69.66       71.31       73.39       76.11       79.77       84.78       91.55       100.0    
  48    100.0       87.82       79.83       74.82       71.57       69.35       67.76       66.56       65.63       64.89    
        64.27       63.76       63.33       62.95       62.63       62.36       62.14       61.96       61.82       61.72    
        61.65       61.59       61.55       61.54       61.55       61.57       61.61       61.67       61.74       61.83    
        61.93       62.06       62.20       62.37       62.56       62.78       63.03       63.32       63.65       64.16    
        64.86       65.68       66.65       67.87       69.47       71.68       74.91       79.90       87.86       100.0    
  49    100.0       79.96       72.01       68.25       66.18       64.88       64.00       63.36       62.87       62.48    
        62.16       61.90       61.68       61.49       61.33       61.19       61.08       60.99       60.92       60.87    
        60.83       60.80       60.78       60.78       60.78       60.79       60.81       60.84       60.87       60.92    
        60.97       61.03       61.11       61.19       61.29       61.40       61.53       61.67       61.84       62.10    
        62.46       62.88       63.40       64.05       64.94       66.23       68.30       72.04       79.97       100.0    
  50    60.00       60.00       60.00       60.00       60.00       60.00       60.00       60.00       60.00       60.00    
        60.00       60.00       60.00       60.00       60.00       60.00       60.00       60.00       60.00       60.00    
        60.00       60.00       60.00       60.00       60.00       60.00       60.00       60.00       60.00       60.00    
        60.00       60.00       60.00       60.00       60.00       60.00       60.00       60.00       60.00       60.00    
        60.00       60.00       60.00       60.00       60.00       60.00       60.00       60.00       60.00       60.00    

 HEAD WILL BE SAVED ON UNIT   51 AT END OF TIME STEP   1, STRESS PERIOD   10
1
  VOLUMETRIC BUDGET FOR ENTIRE MODEL AT END OF TIME STEP  1 IN STRESS PERIOD  10
  ------------------------------------------------------------------------------

     CUMULATIVE VOLUMES      L**3       RATES FOR THIS TIME STEP      L**3/T
     ------------------                 ------------------------

           IN:                                      IN:
           ---                                      ---
             STORAGE =           0.0000               STORAGE =           0.0000
       CONSTANT HEAD =  5816596990.0000         CONSTANT HEAD =     1592715.5000
               WELLS =           0.0000                 WELLS =           0.0000

            TOTAL IN =  5816596990.0000              TOTAL IN =     1592715.5000

          OUT:                                     OUT:
          ----                                     ----
             STORAGE =           0.0000               STORAGE =           0.0000
       CONSTANT HEAD =  4832383490.0000         CONSTANT HEAD =     1323215.5000
               WELLS =   984213888.0000                 WELLS =      269500.0000

           TOTAL OUT =  5816597500.0000             TOTAL OUT =     1592715.5000

            IN - OUT =        -384.0000              IN - OUT =           0.0000

 PERCENT DISCREPANCY =           0.00     PERCENT DISCREPANCY =           0.00






          TIME SUMMARY AT END OF TIME STEP   1 IN STRESS PERIOD   10
                    SECONDS     MINUTES      HOURS       DAYS        YEARS
                    -----------------------------------------------------------
   TIME STEP LENGTH 3.15533E+07 5.25888E+05  8764.8      365.20     0.99986    
 STRESS PERIOD TIME 3.15533E+07 5.25888E+05  8764.8      365.20     0.99986    
         TOTAL TIME 3.15533E+08 5.25888E+06  87648.      3652.0      9.9986    
1
