 ----------------------------------------------------     같같같같 같같같  같같같같 같같같  같    같     같 같 같 같    같       같 같    같 같    같     같 같 같 같    같   같같같 같    같 같    같     같 같 같 같같같        같 같    같 같    같     같 같 같 같       같같같같 같같같  같같같같          mod-PATH3DU version 1.0.6, 10/2014           S.S. Papadopulos & Assoc. Inc.  ----------------------------------------------------  Getting MPSIM file name... - MPSIM file (ugrid_mp3du.mpsim) - MPNAM file (ugrid_mp3du.mpnam) - MPLIST file (ugrid_mp3du.mplist)  Processing basic data... - mod-PATH3DU NAME file... - MODFLOW-USG (NAME,DIS,etc.)...